Version 4
SHEET 1 2600 696
WIRE 272 -16 16 -16
WIRE 448 -16 272 -16
WIRE 464 -16 448 -16
WIRE 560 -16 544 -16
WIRE 656 -16 560 -16
WIRE 656 0 656 -16
WIRE 272 16 272 -16
WIRE 608 16 576 16
WIRE 352 48 320 48
WIRE 448 48 448 -16
WIRE 448 48 416 48
WIRE 272 96 272 80
WIRE 272 96 240 96
WIRE 720 96 656 96
WIRE 848 96 800 96
WIRE 928 96 848 96
WIRE 1024 96 1024 48
WIRE 1024 96 928 96
WIRE 1088 96 1024 96
WIRE 1152 96 1088 96
WIRE 1216 96 1152 96
WIRE 1280 96 1216 96
WIRE 1408 96 1280 96
WIRE -224 112 -224 96
WIRE -192 112 -224 112
WIRE -128 112 -192 112
WIRE -64 112 -128 112
WIRE 16 112 16 -16
WIRE 16 112 -64 112
WIRE 64 112 16 112
WIRE 928 112 928 96
WIRE 320 128 320 48
WIRE 320 128 240 128
WIRE 352 128 320 128
WIRE 448 128 448 48
WIRE 448 128 432 128
WIRE -64 160 -64 112
WIRE -48 160 -64 160
WIRE 64 160 32 160
WIRE 560 160 560 -16
WIRE 560 160 240 160
WIRE 656 160 656 96
WIRE 672 160 656 160
WIRE 800 160 752 160
WIRE 848 160 800 160
WIRE 1408 176 1408 96
WIRE -368 192 -368 160
WIRE 576 192 576 16
WIRE 576 192 240 192
WIRE 1024 192 1024 96
WIRE 1088 192 1088 96
WIRE 1152 192 1152 96
WIRE 1216 192 1216 96
WIRE 1280 192 1280 96
WIRE -192 208 -192 112
WIRE -128 208 -128 112
WIRE 64 208 32 208
WIRE 800 224 240 224
WIRE 928 224 928 192
WIRE 928 224 800 224
WIRE 928 256 928 224
WIRE 656 272 656 160
WIRE -368 304 -368 272
WIRE -192 368 -192 272
WIRE -192 368 -224 368
WIRE -128 368 -128 272
WIRE -128 368 -192 368
WIRE 32 368 32 208
WIRE 32 368 -128 368
WIRE 656 368 656 336
WIRE 656 368 32 368
WIRE 928 368 928 336
WIRE 928 368 656 368
WIRE 1024 368 1024 256
WIRE 1024 368 928 368
WIRE 1088 368 1088 256
WIRE 1088 368 1024 368
WIRE 1152 368 1152 256
WIRE 1152 368 1088 368
WIRE 1216 368 1216 256
WIRE 1216 368 1152 368
WIRE 1280 368 1280 256
WIRE 1280 368 1216 368
WIRE 1408 368 1408 256
WIRE 1408 368 1280 368
WIRE -224 400 -224 368
FLAG -368 304 0
FLAG -368 160 Supply
FLAG -224 96 Supply
FLAG 1024 48 Vout
FLAG -224 400 0
SYMBOL voltage -368 176 R0
WINDOW 123 0 0 Left 0
WINDOW 39 0 0 Left 0
SYMATTR InstName V1
SYMATTR Value 24V
SYMBOL LM25085_TRANS 144 160 R0
WINDOW 0 6 -83 Bottom 2
WINDOW 3 10 86 Top 2
SYMATTR InstName U1
SYMBOL res 48 144 R90
WINDOW 0 0 56 VBottom 2
WINDOW 3 32 56 VTop 2
SYMATTR InstName R1
SYMATTR Value 40K
SYMBOL cap -144 208 R0
SYMATTR InstName C1
SYMATTR Value 10µ
SYMATTR SpiceLine Rser=20m
SYMBOL cap 256 16 R0
SYMATTR InstName C2
SYMATTR Value 470n
SYMBOL cap 416 32 R90
WINDOW 0 0 32 VBottom 2
WINDOW 3 32 32 VTop 2
SYMATTR InstName C3
SYMATTR Value 1n
SYMBOL res 448 112 R90
WINDOW 0 0 56 VBottom 2
WINDOW 3 32 56 VTop 2
SYMATTR InstName R2
SYMATTR Value 1K
SYMBOL res 560 -32 R90
WINDOW 0 0 56 VBottom 2
WINDOW 3 32 56 VTop 2
SYMATTR InstName R3
SYMATTR Value 5m
SYMBOL res 912 96 R0
SYMATTR InstName R4
SYMATTR Value 10k
SYMBOL res 912 240 R0
SYMATTR InstName R5
SYMATTR Value 3.3k
SYMBOL cap 1008 192 R0
SYMATTR InstName C4
SYMATTR Value 10µ
SYMATTR SpiceLine Rser=20m
SYMBOL schottky 672 336 R180
WINDOW 0 -19 60 Left 2
WINDOW 3 -124 -1 Left 2
SYMATTR InstName D1
SYMATTR Value VSSAF5L45
SYMBOL res 1424 272 R180
WINDOW 0 36 76 Left 2
WINDOW 3 36 40 Left 2
SYMATTR InstName load
SYMATTR Value 2.5
SYMBOL ind 704 112 R270
WINDOW 0 32 56 VTop 2
WINDOW 3 5 56 VBottom 2
SYMATTR InstName L1
SYMATTR Value 10µ
SYMATTR SpiceLine Rser=36m
SYMBOL cap 832 96 R0
SYMATTR InstName C5
SYMATTR Value 3300p
SYMATTR SpiceLine Rser=1m
SYMBOL cap 1072 192 R0
SYMATTR InstName C6
SYMATTR Value 10µ
SYMATTR SpiceLine Rser=20m
SYMBOL cap 1136 192 R0
SYMATTR InstName C7
SYMATTR Value 10µ
SYMATTR SpiceLine Rser=20m
SYMBOL cap 1200 192 R0
SYMATTR InstName C8
SYMATTR Value 10µ
SYMATTR SpiceLine Rser=20m
SYMBOL cap 1264 192 R0
WINDOW 3 31 53 Left 2
SYMATTR InstName C9
SYMATTR Value 10µ
SYMATTR SpiceLine Rser=20m
SYMBOL pmos 608 96 M180
SYMATTR InstName M1
SYMATTR Value FDD4141
SYMBOL cap -208 208 R0
SYMATTR InstName C10
SYMATTR Value 10µ
SYMATTR SpiceLine Rser=20m
SYMBOL res 768 144 R90
WINDOW 0 0 56 VBottom 2
WINDOW 3 32 56 VTop 2
SYMATTR InstName R6
SYMATTR Value 66.5K
SYMBOL cap 784 160 R0
WINDOW 0 38 15 Left 2
SYMATTR InstName C11
SYMATTR Value 0.1µ
TEXT -816 -144 Left 2 !.OPTIONS nomarch\n .options plotwinsize 0\n .options numdgt 7\n ;options maxstep 10n\n.tran 0 50m 40m startup
TEXT -816 -8 Left 2 !.meas tran x pp v(Vout)
TEXT 208 448 Left 2 ;step param R list 10k 40.2k 100k 200k 500k 1meg
TEXT -1184 -144 Left 2 !.MODEL VSSAF5L45 D\n+ IS=1.4751E-6 N=1.0333\n+ RS=13.348E-3\n+ IKF=137.57\n+ CJO=1.4647E-9\n+ M=1.3958\n+ VJ=5.4270\n+ ISR=552.13E-9\n+ NR=5.0624\n+ BV=60.115\n+ IBV=.86599\n+ TT=2.0931E-12\n .ENDS
TEXT 904 -176 Left 2 ;* still need to change the value of R1 dependant on de PMOS
