Version 4
SHEET 1 892 680
WIRE 16 16 -96 16
WIRE 192 16 16 16
WIRE -96 32 -96 16
WIRE 16 32 16 16
WIRE 192 32 192 16
WIRE 144 48 64 48
WIRE 144 96 128 96
WIRE 128 112 128 96
WIRE 192 128 192 112
WIRE 272 128 192 128
WIRE 368 128 352 128
WIRE 480 128 368 128
WIRE 192 144 192 128
WIRE 368 144 368 128
WIRE 480 144 480 128
WIRE -96 240 -96 112
WIRE 16 240 16 96
WIRE 16 240 -96 240
WIRE 64 240 64 48
WIRE 64 240 16 240
WIRE 128 240 128 192
WIRE 128 240 64 240
WIRE 192 240 192 208
WIRE 192 240 128 240
WIRE 368 240 368 208
WIRE 368 240 192 240
WIRE 480 240 480 224
WIRE 480 240 368 240
WIRE -96 256 -96 240
FLAG -96 256 0
SYMBOL voltage -96 16 M0
WINDOW 123 0 0 Left 0
WINDOW 39 24 124 Left 2
SYMATTR SpiceLine Rser={Rin}
SYMATTR InstName V1
SYMATTR Value {Vin}
SYMBOL ind 256 144 R270
WINDOW 0 32 56 VTop 2
WINDOW 3 5 56 VBottom 2
SYMATTR InstName L1
SYMATTR Value 10µ
SYMATTR SpiceLine Ipk=7.6 Rser=0.027 Rpar=942 Cpar=0 mfg="Coilcraft" pn="XAL6060-103"
SYMBOL res 464 128 R0
SYMATTR InstName Rload
SYMATTR Value 4
SYMBOL voltage 128 96 M0
WINDOW 3 24 96 Invisible 2
WINDOW 123 0 0 Left 0
WINDOW 39 0 0 Left 0
SYMATTR Value PULSE(0 1 0 1n 1n {Ton} {Tper})
SYMATTR InstName V2
SYMBOL sw 192 16 R0
SYMATTR InstName S1
SYMBOL diode 176 208 M180
WINDOW 0 24 64 Left 2
WINDOW 3 24 0 Left 2
SYMATTR InstName D1
SYMATTR Value Dideal
SYMBOL cap 352 144 R0
SYMATTR InstName C1
SYMATTR Value {Cout}
SYMATTR SpiceLine Rser=10m
SYMBOL cap 32 32 M0
SYMATTR InstName C2
SYMATTR Value {Cin}
SYMATTR SpiceLine Rser=10m
TEXT -272 -320 Left 2 !.PARAM Vin=24\n.PARAM Vout=12\n.PARAM Rin=100m\n.PARAM D=Vout/Vin\n.PARAM Fsw=1MEG\n.PARAM Tper=1/Fsw\n.PARAM Ton=Tper*D\n.PARAM Cin=10u\n.PARAM Cout=50u\n.model Dideal D(Ron=1m Roff=1G Vfwd=0)\n.model SW SW(Ron=1m Roff=1G Vt=0.5 Vh=0.1 Lser=0 Vser=0)\n.tran 0 10m 9m99
