Version 4
SHEET 1 4692 5524
WIRE 1104 -400 1104 -416
WIRE 1104 -304 1104 -320
WIRE 1120 -304 1104 -304
WIRE 1104 -288 1104 -304
WIRE 1104 -192 1104 -208
WIRE 1040 -16 1040 -32
WIRE 768 0 672 0
WIRE 832 0 768 0
WIRE 928 0 912 0
WIRE 1008 0 928 0
WIRE 768 16 768 0
WIRE 1088 16 1072 16
WIRE 1104 16 1088 16
WIRE 1200 16 1184 16
WIRE 1248 16 1200 16
WIRE 1344 16 1328 16
WIRE 1360 16 1344 16
WIRE 672 32 672 0
WIRE 928 32 928 0
WIRE 1008 32 992 32
WIRE 1040 64 1040 48
WIRE 1248 112 1248 96
WIRE 992 128 992 32
WIRE 1088 128 1088 16
WIRE 1088 128 992 128
WIRE 1200 128 1200 16
WIRE 1216 128 1200 128
WIRE 672 144 672 112
WIRE 672 144 656 144
WIRE 768 144 768 96
WIRE 832 144 768 144
WIRE 928 144 928 96
WIRE 928 144 912 144
WIRE 944 144 928 144
WIRE 1344 144 1344 16
WIRE 1344 144 1280 144
WIRE 1088 160 992 160
WIRE 1216 160 1200 160
WIRE 672 176 672 144
WIRE 768 192 768 144
WIRE 928 192 928 144
WIRE 1248 192 1248 176
WIRE 1040 240 1040 224
WIRE 992 256 992 160
WIRE 1008 256 992 256
WIRE 1088 272 1088 160
WIRE 1088 272 1072 272
WIRE 1104 272 1088 272
WIRE 1200 272 1200 160
WIRE 1200 272 1184 272
WIRE 1248 272 1200 272
WIRE 1360 272 1328 272
WIRE 672 288 672 256
WIRE 768 288 768 272
WIRE 768 288 672 288
WIRE 832 288 768 288
WIRE 928 288 928 256
WIRE 928 288 912 288
WIRE 1008 288 928 288
WIRE 1360 288 1360 272
WIRE 1040 320 1040 304
FLAG 1120 -304 0
FLAG 1104 -192 -12V
FLAG 1104 -416 +12V
FLAG 672 0 HOT
FLAG 1040 224 +12V
FLAG 1040 320 -12V
FLAG 656 144 0
FLAG 672 288 COLD
FLAG 1040 64 +12V
FLAG 1040 -32 -12V
FLAG 1248 96 +12V
FLAG 1248 192 -12V
FLAG 1360 288 0
FLAG 1360 16 AAF_IN
FLAG 944 144 0
SYMBOL voltage 1104 -416 R0
SYMATTR InstName V1
SYMATTR Value {C}
SYMBOL voltage 1104 -304 R0
SYMATTR InstName V2
SYMATTR Value {C}
SYMBOL voltage 672 16 M0
WINDOW 123 24 124 Left 2
WINDOW 39 0 0 Left 0
SYMATTR Value2 AC 1
SYMATTR InstName V3
SYMATTR Value SINE(0 {U/2} 1k 0)
SYMBOL voltage 672 160 M0
WINDOW 123 24 124 Left 2
WINDOW 39 0 0 Left 0
SYMATTR Value2 AC 1
SYMATTR InstName V4
SYMATTR Value SINE(0 {U/2} 1k 0)
SYMBOL cap 912 32 R0
SYMATTR InstName C3
SYMATTR Value 3n3
SYMBOL cap 912 192 R0
SYMATTR InstName C8
SYMATTR Value 3n3
SYMBOL Misc\\EuropeanResistor 1088 0 M90
WINDOW 0 5 56 VBottom 2
WINDOW 3 27 56 VTop 2
SYMATTR InstName R3
SYMATTR Value 1k
SYMBOL Misc\\EuropeanResistor 816 -16 M90
WINDOW 0 5 56 VBottom 2
WINDOW 3 27 56 VTop 2
SYMATTR InstName R1
SYMATTR Value 220
SYMBOL Misc\\EuropeanResistor 928 272 R90
WINDOW 0 5 56 VBottom 2
WINDOW 3 27 56 VTop 2
SYMATTR InstName R10
SYMATTR Value 220
SYMBOL Misc\\EuropeanResistor 1232 0 M90
WINDOW 0 5 56 VBottom 2
WINDOW 3 27 56 VTop 2
SYMATTR InstName R4
SYMATTR Value 1k
SYMBOL Misc\\EuropeanResistor 1200 256 R90
WINDOW 0 5 56 VBottom 2
WINDOW 3 27 56 VTop 2
SYMATTR InstName R8
SYMATTR Value 1k
SYMBOL Misc\\EuropeanResistor 1344 256 R90
WINDOW 0 5 56 VBottom 2
WINDOW 3 27 56 VTop 2
SYMATTR InstName R9
SYMATTR Value 1k
SYMBOL Misc\\EuropeanResistor 752 0 R0
SYMATTR InstName R5
SYMATTR Value 47k
SYMBOL Misc\\EuropeanResistor 752 176 R0
SYMATTR InstName R7
SYMATTR Value 47k
SYMBOL Misc\\EuropeanResistor 928 128 R90
WINDOW 0 5 56 VBottom 2
WINDOW 3 27 56 VTop 2
SYMATTR InstName R6
SYMATTR Value 2Meg2
SYMBOL OpAmps\\LT6220 1040 16 M180
SYMATTR InstName U1
SYMBOL OpAmps\\LT6220 1040 272 R0
SYMATTR InstName U2
SYMBOL OpAmps\\LT6220 1248 144 R0
SYMATTR InstName U3
TEXT 416 -528 Left 2 !.OPTIONS nomarch\n.options plotwinsize 0\n.options numdgt 7\n;options maxstep 10n\n.param C=12\n.param U=1
TEXT 416 -216 Left 2 ;;tran 0 6m 1m uic\nsavebias stab.txt internal time=500u repeat
TEXT 416 -160 Left 2 !.ac dec 1000 10 1MEG\n*.loadbias stab.txt
TEXT 688 -512 Left 2 !.options maxstep 1u\n;tran 0 10m 5m uic
TEXT 1368 400 Right 2 ;PWL(1m 0 +1m 0 +1u {U/2} +{1m-1u} {U/2} +1u 0 +{1m-1u} 0 +1u {-U/2} +{1m-1u} {-U/2} +1u 0)
TEXT 952 344 Right 2 ;SINE(0 {U/2} 1k 0)
TEXT 816 -96 Left 2 ;Fc=-3dB=218kHz
TEXT 952 368 Right 2 ;SINE(0 {U/2} 10k 0)
