Version 4
SHEET 1 4692 5524
WIRE 1280 -512 1280 -528
WIRE 1280 -416 1280 -432
WIRE 1296 -416 1280 -416
WIRE 1280 -400 1280 -416
WIRE 1280 -304 1280 -320
WIRE 1648 -160 1648 -176
WIRE 1280 -144 1280 -160
WIRE 1424 -144 1280 -144
WIRE 1440 -144 1424 -144
WIRE 1536 -144 1520 -144
WIRE 1616 -144 1536 -144
WIRE 1280 -128 1280 -144
WIRE 1424 -128 1424 -144
WIRE 1712 -128 1680 -128
WIRE 1760 -128 1712 -128
WIRE 1888 -128 1840 -128
WIRE 2096 -128 1888 -128
WIRE 2192 -128 2176 -128
WIRE 1536 -112 1536 -144
WIRE 1616 -112 1600 -112
WIRE 1648 -80 1648 -96
WIRE 1888 -80 1888 -128
WIRE 2000 -80 1888 -80
WIRE 2080 -80 2064 -80
WIRE 1424 -32 1424 -48
WIRE 1536 -32 1536 -48
WIRE 1536 -32 1424 -32
WIRE 1600 -16 1600 -112
WIRE 1712 -16 1712 -128
WIRE 1712 -16 1600 -16
WIRE 1936 0 1936 -16
WIRE 2080 32 2080 -80
WIRE 2096 32 2080 32
WIRE 2192 32 2192 -128
WIRE 2192 32 2176 32
WIRE 2304 32 2192 32
WIRE 2384 32 2304 32
WIRE 2480 32 2464 32
WIRE 1888 48 1888 -80
WIRE 1904 48 1888 48
WIRE 2080 48 2080 32
WIRE 2080 48 2064 48
WIRE 2304 48 2304 32
WIRE 1904 80 1856 80
WIRE 2480 80 2480 32
WIRE 2496 80 2480 80
WIRE 1904 112 1888 112
WIRE 2080 112 2064 112
WIRE 2080 128 2080 112
WIRE 2096 128 2080 128
WIRE 2192 128 2176 128
WIRE 2304 128 2304 112
WIRE 2304 128 2192 128
WIRE 2384 128 2304 128
WIRE 2480 128 2480 80
WIRE 2480 128 2464 128
WIRE 2512 160 2464 160
WIRE 1936 176 1936 160
WIRE 2512 176 2512 160
WIRE 2320 224 2224 224
WIRE 1888 240 1888 112
WIRE 2000 240 1888 240
WIRE 2080 240 2080 128
WIRE 2080 240 2064 240
WIRE 1536 256 1536 -32
WIRE 1712 256 1536 256
WIRE 2512 272 2512 256
WIRE 1280 288 1280 -48
WIRE 1744 288 1712 256
WIRE 1744 288 1280 288
WIRE 1760 288 1744 288
WIRE 1888 288 1888 240
WIRE 1888 288 1840 288
WIRE 2080 288 1888 288
WIRE 2192 288 2192 128
WIRE 2192 288 2160 288
WIRE 1744 304 1744 288
WIRE 2272 320 2272 304
WIRE 2320 336 2320 224
WIRE 2320 336 2304 336
WIRE 1856 352 1856 80
WIRE 2224 352 2224 224
WIRE 2224 352 1856 352
WIRE 2240 352 2224 352
WIRE 2320 368 2304 368
WIRE 2368 368 2320 368
WIRE 2464 368 2464 160
WIRE 2464 368 2448 368
WIRE 2320 384 2320 368
WIRE 2272 400 2272 384
WIRE 2320 464 2320 448
FLAG 1296 -416 0
FLAG 1280 -304 -12V
FLAG 1280 -528 +12V
FLAG 2272 304 +12V
FLAG 2272 400 -12V
FLAG 2320 464 0
FLAG 2512 272 0
FLAG 2512 160 VCOM
FLAG 2496 80 0
FLAG 1936 -16 +12V
FLAG 1936 176 -12V
FLAG 1280 -160 HOT
FLAG 1648 -80 +12V
FLAG 1648 -176 -12V
FLAG 1744 304 0
SYMBOL voltage 1280 -528 R0
SYMATTR InstName V1
SYMATTR Value {C}
SYMBOL voltage 1280 -416 R0
SYMATTR InstName V2
SYMATTR Value {C}
SYMBOL OpAmps\\LT6220 2272 352 M0
SYMATTR InstName U2
SYMBOL mylib\\Opamps\\OPA1632 1968 80 R0
SYMATTR InstName U1
SYMBOL cap 2304 384 R0
SYMATTR InstName C10
SYMATTR Value 100n
SYMBOL voltage 2512 160 R0
WINDOW 123 0 0 Left 0
WINDOW 39 0 0 Left 0
SYMATTR InstName V5
SYMATTR Value 2.5
SYMBOL cap 2288 48 R0
SYMATTR InstName C3
SYMATTR Value 2n7
SYMBOL cap 2064 -96 R90
WINDOW 0 0 32 VBottom 2
WINDOW 3 32 32 VTop 2
SYMATTR InstName C1
SYMATTR Value 1n
SYMBOL cap 2064 224 R90
WINDOW 0 0 32 VBottom 2
WINDOW 3 32 32 VTop 2
SYMATTR InstName C2
SYMATTR Value 1n
SYMBOL voltage 1280 -144 M0
WINDOW 123 24 124 Left 2
WINDOW 39 0 0 Left 0
SYMATTR Value2 AC 1
SYMATTR InstName V3
SYMATTR Value SINE(0 {U} 1k 0)
SYMBOL cap 1520 -112 R0
SYMATTR InstName C4
SYMATTR Value 3n3
SYMBOL OpAmps\\LT6220 1648 -128 M180
SYMATTR InstName U3
SYMBOL res 2192 -144 R90
WINDOW 0 0 56 VBottom 2
WINDOW 3 32 56 VTop 2
SYMATTR InstName R3
SYMATTR Value 2k7
SYMBOL res 1856 -144 R90
WINDOW 0 0 56 VBottom 2
WINDOW 3 32 56 VTop 2
SYMATTR InstName R1
SYMATTR Value 1k
SYMBOL res 1856 272 R90
WINDOW 0 0 56 VBottom 2
WINDOW 3 32 56 VTop 2
SYMATTR InstName R2
SYMATTR Value 1k
SYMBOL res 2192 16 R90
WINDOW 0 0 56 VBottom 2
WINDOW 3 32 56 VTop 2
SYMATTR InstName R5
SYMATTR Value 39
SYMBOL res 2192 112 R90
WINDOW 0 0 56 VBottom 2
WINDOW 3 32 56 VTop 2
SYMATTR InstName R6
SYMATTR Value 39
SYMBOL res 2176 272 R90
WINDOW 0 0 56 VBottom 2
WINDOW 3 32 56 VTop 2
SYMATTR InstName R4
SYMATTR Value 2k7
SYMBOL res 2464 352 R90
WINDOW 0 0 56 VBottom 2
WINDOW 3 32 56 VTop 2
SYMATTR InstName R10
SYMATTR Value 1k
SYMBOL res 2480 16 R90
WINDOW 0 0 56 VBottom 2
WINDOW 3 32 56 VTop 2
SYMATTR InstName RI-
SYMATTR Value 10k
SYMBOL res 2480 112 R90
WINDOW 0 0 56 VBottom 2
WINDOW 3 32 56 VTop 2
SYMATTR InstName RI+
SYMATTR Value 10k
SYMBOL res 1536 -160 R90
WINDOW 0 0 56 VBottom 2
WINDOW 3 32 56 VTop 2
SYMATTR InstName R7
SYMATTR Value 220
SYMBOL res 1440 -32 R180
WINDOW 0 36 76 Left 2
WINDOW 3 36 40 Left 2
SYMATTR InstName R12
SYMATTR Value 47k
TEXT 680 -464 Left 2 !.OPTIONS nomarch\n.options plotwinsize 0\n.options numdgt 7\n;options maxstep 10n\n.param C=12\n.param U=1.74
TEXT 680 -144 Left 2 !.ac dec 1000 10 1MEG\n*.loadbias stab.txt
TEXT 672 -272 Left 2 ;.options maxstep 1u\n.savebias stab.txt internal time=500u repeat\n.tran 0 10m 5m uic
TEXT 2328 320 Left 2 ;fc=1592Hz
TEXT 2376 -16 Left 2 ;PCM1804
TEXT 2304 -384 VRight 2 ;Charge glitch reservoir for the ADC
TEXT 768 160 Left 2 ;SINE(0 {U} 1k 0)\nPULSE(0 {U} 0 1u 1u 0 1m 10)
TEXT 1512 -384 VRight 2 ;Fc=-3dB=218kHz
TEXT 2160 416 Left 2 ;LM4562
TEXT 2432 -72 Left 2 ;Input range is 0 to 5V, referenced to 2.5V
TEXT 1176 312 Left 2 ;Route via net-tie on PCB. Place GND via here->
TEXT 1648 -512 VRight 2 ;Buffer to isolate filters
TEXT 1664 -184 Left 2 ;LM4562
TEXT 1888 -648 Left 2 ;Design should be fine, checked gain and frequency response
LINE Normal 2384 -32 2368 80 2
LINE Normal 2576 -32 2384 -32 2
LINE Normal 2576 304 2576 -32 2
LINE Normal 2384 304 2576 304 2
LINE Normal 2368 80 2384 304 2
LINE Normal 2368 80 2368 80 2
