Version 4
SHEET 1 4692 5524
WIRE 1376 -496 1376 -512
WIRE 1376 -400 1376 -416
WIRE 1392 -400 1376 -400
WIRE 1376 -384 1376 -400
WIRE 1376 -288 1376 -304
WIRE 2032 -144 1872 -144
WIRE 2176 -144 2112 -144
WIRE 1872 -96 1872 -144
WIRE 1984 -96 1872 -96
WIRE 2064 -96 2048 -96
WIRE 1648 -80 1648 -96
WIRE 1280 -64 1280 -80
WIRE 1424 -64 1280 -64
WIRE 1440 -64 1424 -64
WIRE 1536 -64 1520 -64
WIRE 1616 -64 1536 -64
WIRE 1280 -48 1280 -64
WIRE 1424 -48 1424 -64
WIRE 1696 -48 1680 -48
WIRE 1744 -48 1696 -48
WIRE 1872 -48 1872 -96
WIRE 1872 -48 1824 -48
WIRE 1536 -32 1536 -64
WIRE 1616 -32 1600 -32
WIRE 1648 0 1648 -16
WIRE 1920 0 1920 -16
WIRE 2064 32 2064 -96
WIRE 2080 32 2064 32
WIRE 2176 32 2176 -144
WIRE 2176 32 2160 32
WIRE 2288 32 2176 32
WIRE 2368 32 2288 32
WIRE 2464 32 2448 32
WIRE 1872 48 1872 -48
WIRE 1888 48 1872 48
WIRE 2064 48 2064 32
WIRE 2064 48 2048 48
WIRE 2288 48 2288 32
WIRE 1600 64 1600 -32
WIRE 1696 64 1696 -48
WIRE 1696 64 1600 64
WIRE 960 80 944 80
WIRE 1280 80 1280 32
WIRE 1280 80 1040 80
WIRE 1424 80 1424 32
WIRE 1440 80 1424 80
WIRE 1536 80 1536 32
WIRE 1536 80 1520 80
WIRE 1552 80 1536 80
WIRE 1888 80 1840 80
WIRE 2464 80 2464 32
WIRE 2480 80 2464 80
WIRE 1696 96 1600 96
WIRE 1888 112 1872 112
WIRE 2064 112 2048 112
WIRE 1280 128 1280 80
WIRE 1424 128 1424 80
WIRE 1536 128 1536 80
WIRE 2064 128 2064 112
WIRE 2080 128 2064 128
WIRE 2176 128 2160 128
WIRE 2288 128 2288 112
WIRE 2288 128 2176 128
WIRE 2368 128 2288 128
WIRE 2464 128 2464 80
WIRE 2464 128 2448 128
WIRE 2496 160 2448 160
WIRE 1648 176 1648 160
WIRE 1920 176 1920 160
WIRE 2496 176 2496 160
WIRE 1600 192 1600 96
WIRE 1616 192 1600 192
WIRE 1696 208 1696 96
WIRE 1696 208 1680 208
WIRE 1744 208 1696 208
WIRE 1872 208 1872 112
WIRE 1872 208 1824 208
WIRE 1280 224 1280 208
WIRE 1424 224 1424 208
WIRE 1424 224 1280 224
WIRE 1440 224 1424 224
WIRE 1536 224 1536 192
WIRE 1536 224 1520 224
WIRE 1616 224 1536 224
WIRE 1280 240 1280 224
WIRE 1872 240 1872 208
WIRE 1984 240 1872 240
WIRE 2064 240 2064 128
WIRE 2064 240 2048 240
WIRE 2304 240 2208 240
WIRE 1648 256 1648 240
WIRE 2496 272 2496 256
WIRE 1872 304 1872 240
WIRE 2032 304 1872 304
WIRE 2176 304 2176 128
WIRE 2176 304 2112 304
WIRE 2256 336 2256 320
WIRE 2304 352 2304 240
WIRE 2304 352 2288 352
WIRE 1840 368 1840 80
WIRE 2208 368 2208 240
WIRE 2208 368 1840 368
WIRE 2224 368 2208 368
WIRE 2304 384 2288 384
WIRE 2352 384 2304 384
WIRE 2448 384 2448 160
WIRE 2448 384 2432 384
WIRE 2304 400 2304 384
WIRE 2256 416 2256 400
WIRE 2304 480 2304 464
FLAG 1392 -400 0
FLAG 1376 -288 -12V
FLAG 1376 -512 +12V
FLAG 2256 320 +12V
FLAG 2256 416 -12V
FLAG 2304 480 0
FLAG 2496 272 0
FLAG 2496 160 VCOM
FLAG 2480 80 0
FLAG 1920 -16 +12V
FLAG 1920 176 -12V
FLAG 1280 -80 HOT
FLAG 944 80 0
FLAG 1280 240 COLD
FLAG 1648 160 +12V
FLAG 1648 256 -12V
FLAG 1648 0 +12V
FLAG 1648 -96 -12V
FLAG 1552 80 0
SYMBOL voltage 1376 -512 R0
SYMATTR InstName V1
SYMATTR Value {C}
SYMBOL voltage 1376 -400 R0
SYMATTR InstName V2
SYMATTR Value {C}
SYMBOL OpAmps\\LT6220 2256 368 M0
SYMATTR InstName U2
SYMBOL mylib\\Opamps\\OPA1632 1952 80 R0
SYMATTR InstName U1
SYMBOL cap 2288 400 R0
SYMATTR InstName C10
SYMATTR Value 100n
SYMBOL voltage 2496 160 R0
WINDOW 123 0 0 Left 0
WINDOW 39 0 0 Left 0
SYMATTR InstName V5
SYMATTR Value 2.5
SYMBOL cap 2272 48 R0
SYMATTR InstName C3
SYMATTR Value 2n7
SYMBOL cap 2048 -112 R90
WINDOW 0 0 32 VBottom 2
WINDOW 3 32 32 VTop 2
SYMATTR InstName C1
SYMATTR Value 1n
SYMBOL cap 2048 224 R90
WINDOW 0 0 32 VBottom 2
WINDOW 3 32 32 VTop 2
SYMATTR InstName C2
SYMATTR Value 1n
SYMBOL voltage 1280 -64 M0
WINDOW 123 24 124 Left 2
WINDOW 39 0 0 Left 0
SYMATTR Value2 AC 0
SYMATTR InstName V3
SYMATTR Value 0
SYMBOL voltage 1280 112 M0
WINDOW 123 24 124 Left 2
WINDOW 39 0 0 Left 0
SYMATTR Value2 AC 0
SYMATTR InstName V4
SYMATTR Value 0
SYMBOL voltage 1056 80 R90
WINDOW 0 -32 56 VBottom 2
WINDOW 3 88 56 VTop 2
WINDOW 123 60 56 VTop 2
WINDOW 39 0 0 Left 0
SYMATTR InstName V6
SYMATTR Value PULSE(0 {U/2} 0 1n 1n 500u 1m 10)
SYMATTR Value2 AC 1
SYMBOL cap 1520 -32 R0
SYMATTR InstName C4
SYMATTR Value 3n3
SYMBOL cap 1520 128 R0
SYMATTR InstName C5
SYMATTR Value 3n3
SYMBOL OpAmps\\LT6220 1648 -48 M180
SYMATTR InstName U3
SYMBOL OpAmps\\LT6220 1648 208 R0
SYMATTR InstName U4
SYMBOL res 2128 -160 R90
WINDOW 0 0 56 VBottom 2
WINDOW 3 32 56 VTop 2
SYMATTR InstName R3
SYMATTR Value 270
SYMBOL res 1840 -64 R90
WINDOW 0 0 56 VBottom 2
WINDOW 3 32 56 VTop 2
SYMATTR InstName R1
SYMATTR Value 1k
SYMBOL res 1840 192 R90
WINDOW 0 0 56 VBottom 2
WINDOW 3 32 56 VTop 2
SYMATTR InstName R2
SYMATTR Value 1k
SYMBOL res 2176 16 R90
WINDOW 0 0 56 VBottom 2
WINDOW 3 32 56 VTop 2
SYMATTR InstName R5
SYMATTR Value 39
SYMBOL res 2176 112 R90
WINDOW 0 0 56 VBottom 2
WINDOW 3 32 56 VTop 2
SYMATTR InstName R6
SYMATTR Value 39
SYMBOL res 2128 288 R90
WINDOW 0 0 56 VBottom 2
WINDOW 3 32 56 VTop 2
SYMATTR InstName R4
SYMATTR Value 270
SYMBOL res 2448 368 R90
WINDOW 0 0 56 VBottom 2
WINDOW 3 32 56 VTop 2
SYMATTR InstName R10
SYMATTR Value 1k
SYMBOL res 2464 16 R90
WINDOW 0 0 56 VBottom 2
WINDOW 3 32 56 VTop 2
SYMATTR InstName RI-
SYMATTR Value 10k
SYMBOL res 2464 112 R90
WINDOW 0 0 56 VBottom 2
WINDOW 3 32 56 VTop 2
SYMATTR InstName RI+
SYMATTR Value 10k
SYMBOL res 1536 -80 R90
WINDOW 0 0 56 VBottom 2
WINDOW 3 32 56 VTop 2
SYMATTR InstName R7
SYMATTR Value 220
SYMBOL res 1536 208 R90
WINDOW 0 0 56 VBottom 2
WINDOW 3 32 56 VTop 2
SYMATTR InstName R9
SYMATTR Value 220
SYMBOL res 1536 64 R90
WINDOW 0 0 56 VBottom 2
WINDOW 3 32 56 VTop 2
SYMATTR InstName R14
SYMATTR Value 2Meg2
SYMBOL res 1440 48 R180
WINDOW 0 36 76 Left 2
WINDOW 3 36 40 Left 2
SYMATTR InstName R12
SYMATTR Value 47k
SYMBOL res 1440 224 R180
WINDOW 0 36 76 Left 2
WINDOW 3 36 40 Left 2
SYMATTR InstName R13
SYMATTR Value 47k
TEXT 680 -464 Left 2 !.OPTIONS nomarch\n.options plotwinsize 0\n.options numdgt 7\n;options maxstep 10n\n.param C=12\n.param U=1
TEXT 680 -144 Left 2 ;.ac dec 1000 10 1MEG\n*.loadbias stab.txt
TEXT 672 -272 Left 2 !.options maxstep 1u\n.savebias stab.txt internal time=500u repeat\n.tran 0 10m 5m uic
TEXT 2312 336 Left 2 ;fc=1592Hz
TEXT 2360 -16 Left 2 ;PCM1804
TEXT 2296 -376 VRight 2 ;Charge glitch reservoir for the ADC
TEXT 1072 448 Left 2 ;SINE(0 {U/2} 1k 0)\nPULSE(0 {U/2} 0 1u 1u 0 1m 10)
TEXT 1312 400 Right 2 ;SINE(0 {U/2} 1k 0)
TEXT 1376 -136 Left 2 ;Fc=-3dB=218kHz
TEXT 1336 344 Right 2 ;SINE(0 {U/2} 10k 0)
TEXT 2144 432 Left 2 ;LM4562
LINE Normal 2368 -32 2352 80 2
LINE Normal 2560 -32 2368 -32 2
LINE Normal 2560 304 2560 -32 2
LINE Normal 2368 304 2560 304 2
LINE Normal 2352 80 2368 304 2
LINE Normal 2352 80 2352 80 2
