Version 4
SHEET 1 4692 5524
WIRE 1280 -512 1280 -528
WIRE 1280 -416 1280 -432
WIRE 1296 -416 1280 -416
WIRE 1280 -400 1280 -416
WIRE 1280 -304 1280 -320
WIRE 1680 -160 1680 -176
WIRE 1280 -144 1280 -160
WIRE 1424 -144 1280 -144
WIRE 1440 -144 1424 -144
WIRE 1536 -144 1520 -144
WIRE 1648 -144 1536 -144
WIRE 1280 -128 1280 -144
WIRE 1424 -128 1424 -144
WIRE 1744 -128 1712 -128
WIRE 1792 -128 1744 -128
WIRE 1920 -128 1872 -128
WIRE 2128 -128 1920 -128
WIRE 2224 -128 2208 -128
WIRE 1536 -112 1536 -144
WIRE 1648 -112 1632 -112
WIRE 1680 -80 1680 -96
WIRE 1920 -80 1920 -128
WIRE 2032 -80 1920 -80
WIRE 2112 -80 2096 -80
WIRE 1968 0 1968 -16
WIRE 1632 16 1632 -112
WIRE 1648 16 1632 16
WIRE 1744 16 1744 -128
WIRE 1744 16 1728 16
WIRE 2112 32 2112 -80
WIRE 2128 32 2112 32
WIRE 2224 32 2224 -128
WIRE 2224 32 2208 32
WIRE 2336 32 2224 32
WIRE 2416 32 2336 32
WIRE 2512 32 2496 32
WIRE 1920 48 1920 -80
WIRE 1936 48 1920 48
WIRE 2112 48 2112 32
WIRE 2112 48 2096 48
WIRE 2336 48 2336 32
WIRE 960 80 944 80
WIRE 1232 80 1040 80
WIRE 1280 80 1280 -48
WIRE 1280 80 1248 80
WIRE 1424 80 1424 -48
WIRE 1440 80 1424 80
WIRE 1536 80 1536 -48
WIRE 1536 80 1520 80
WIRE 1552 80 1536 80
WIRE 1936 80 1888 80
WIRE 2512 80 2512 32
WIRE 2528 80 2512 80
WIRE 1936 112 1920 112
WIRE 2112 112 2096 112
WIRE 2112 128 2112 112
WIRE 2128 128 2112 128
WIRE 2224 128 2208 128
WIRE 2336 128 2336 112
WIRE 2336 128 2224 128
WIRE 2416 128 2336 128
WIRE 2512 128 2512 80
WIRE 2512 128 2496 128
WIRE 1632 144 1632 112
WIRE 1648 144 1632 144
WIRE 1744 144 1728 144
WIRE 2544 160 2496 160
WIRE 1968 176 1968 160
WIRE 2544 176 2544 160
WIRE 1280 208 1280 80
WIRE 1424 208 1424 80
WIRE 1536 208 1536 80
WIRE 2352 224 2256 224
WIRE 1920 240 1920 112
WIRE 2032 240 1920 240
WIRE 2112 240 2112 128
WIRE 2112 240 2096 240
WIRE 1680 256 1680 240
WIRE 1632 272 1632 144
WIRE 1648 272 1632 272
WIRE 2544 272 2544 256
WIRE 1744 288 1744 144
WIRE 1744 288 1712 288
WIRE 1792 288 1744 288
WIRE 1920 288 1920 240
WIRE 1920 288 1872 288
WIRE 2112 288 1920 288
WIRE 2224 288 2224 128
WIRE 2224 288 2192 288
WIRE 1280 304 1280 288
WIRE 1424 304 1424 288
WIRE 1424 304 1280 304
WIRE 1440 304 1424 304
WIRE 1536 304 1536 272
WIRE 1536 304 1520 304
WIRE 1648 304 1536 304
WIRE 1280 320 1280 304
WIRE 2304 320 2304 304
WIRE 1680 336 1680 320
WIRE 2352 336 2352 224
WIRE 2352 336 2336 336
WIRE 1888 352 1888 80
WIRE 2256 352 2256 224
WIRE 2256 352 1888 352
WIRE 2272 352 2256 352
WIRE 2352 368 2336 368
WIRE 2400 368 2352 368
WIRE 2496 368 2496 160
WIRE 2496 368 2480 368
WIRE 2352 384 2352 368
WIRE 2304 400 2304 384
WIRE 2352 464 2352 448
FLAG 1296 -416 0
FLAG 1280 -304 -12V
FLAG 1280 -528 +12V
FLAG 2304 304 +12V
FLAG 2304 400 -12V
FLAG 2352 464 0
FLAG 2544 272 0
FLAG 2544 160 VCOM
FLAG 2528 80 0
FLAG 1968 -16 +12V
FLAG 1968 176 -12V
FLAG 1280 -160 HOT
FLAG 944 80 0
FLAG 1280 320 COLD
FLAG 1680 240 +12V
FLAG 1680 336 -12V
FLAG 1680 -80 +12V
FLAG 1680 -176 -12V
FLAG 1552 80 0
SYMBOL voltage 1280 -528 R0
SYMATTR InstName V1
SYMATTR Value {C}
SYMBOL voltage 1280 -416 R0
SYMATTR InstName V2
SYMATTR Value {C}
SYMBOL OpAmps\\LT6220 2304 352 M0
SYMATTR InstName U2
SYMBOL mylib\\Opamps\\OPA1632 2000 80 R0
SYMATTR InstName U1
SYMBOL cap 2336 384 R0
SYMATTR InstName C10
SYMATTR Value 100n
SYMBOL voltage 2544 160 R0
WINDOW 123 0 0 Left 0
WINDOW 39 0 0 Left 0
SYMATTR InstName V5
SYMATTR Value 2.5
SYMBOL cap 2320 48 R0
SYMATTR InstName C3
SYMATTR Value 2n7
SYMBOL cap 2096 -96 R90
WINDOW 0 0 32 VBottom 2
WINDOW 3 32 32 VTop 2
SYMATTR InstName C1
SYMATTR Value 1n
SYMBOL cap 2096 224 R90
WINDOW 0 0 32 VBottom 2
WINDOW 3 32 32 VTop 2
SYMATTR InstName C2
SYMATTR Value 1n
SYMBOL voltage 1280 -144 M0
WINDOW 123 24 124 Left 2
WINDOW 39 0 0 Left 0
SYMATTR Value2 AC 1
SYMATTR InstName V3
SYMATTR Value SINE(0 {U} 1k 0)
SYMBOL voltage 1280 192 M0
WINDOW 123 24 124 Left 2
WINDOW 39 0 0 Left 0
SYMATTR Value2 AC 1
SYMATTR InstName V4
SYMATTR Value SINE(0 {U} 1k 0)
SYMBOL voltage 1056 80 R90
WINDOW 0 -32 56 VBottom 2
WINDOW 3 88 56 VTop 2
WINDOW 123 60 56 VTop 2
WINDOW 39 0 0 Left 0
SYMATTR InstName V6
SYMATTR Value PULSE(0 {U/2} 0 1n 1n 500u 1m 10)
SYMATTR Value2 AC 1
SYMBOL cap 1520 -112 R0
SYMATTR InstName C4
SYMATTR Value 3n3
SYMBOL cap 1520 208 R0
SYMATTR InstName C5
SYMATTR Value 3n3
SYMBOL OpAmps\\LT6220 1680 -128 M180
SYMATTR InstName U3
SYMBOL OpAmps\\LT6220 1680 288 R0
SYMATTR InstName U4
SYMBOL res 2224 -144 R90
WINDOW 0 0 56 VBottom 2
WINDOW 3 32 56 VTop 2
SYMATTR InstName R3
SYMATTR Value 270
SYMBOL res 1888 -144 R90
WINDOW 0 0 56 VBottom 2
WINDOW 3 32 56 VTop 2
SYMATTR InstName R1
SYMATTR Value 1k
SYMBOL res 1888 272 R90
WINDOW 0 0 56 VBottom 2
WINDOW 3 32 56 VTop 2
SYMATTR InstName R2
SYMATTR Value 1k
SYMBOL res 2224 16 R90
WINDOW 0 0 56 VBottom 2
WINDOW 3 32 56 VTop 2
SYMATTR InstName R5
SYMATTR Value 39
SYMBOL res 2224 112 R90
WINDOW 0 0 56 VBottom 2
WINDOW 3 32 56 VTop 2
SYMATTR InstName R6
SYMATTR Value 39
SYMBOL res 2208 272 R90
WINDOW 0 0 56 VBottom 2
WINDOW 3 32 56 VTop 2
SYMATTR InstName R4
SYMATTR Value 270
SYMBOL res 2496 352 R90
WINDOW 0 0 56 VBottom 2
WINDOW 3 32 56 VTop 2
SYMATTR InstName R10
SYMATTR Value 1k
SYMBOL res 2512 16 R90
WINDOW 0 0 56 VBottom 2
WINDOW 3 32 56 VTop 2
SYMATTR InstName RI-
SYMATTR Value 10k
SYMBOL res 2512 112 R90
WINDOW 0 0 56 VBottom 2
WINDOW 3 32 56 VTop 2
SYMATTR InstName RI+
SYMATTR Value 10k
SYMBOL res 1536 -160 R90
WINDOW 0 0 56 VBottom 2
WINDOW 3 32 56 VTop 2
SYMATTR InstName R7
SYMATTR Value 220
SYMBOL res 1536 288 R90
WINDOW 0 0 56 VBottom 2
WINDOW 3 32 56 VTop 2
SYMATTR InstName R9
SYMATTR Value 220
SYMBOL res 1536 64 R90
WINDOW 0 0 56 VBottom 2
WINDOW 3 32 56 VTop 2
SYMATTR InstName R14
SYMATTR Value 2Meg2
SYMBOL res 1440 -32 R180
WINDOW 0 36 76 Left 2
WINDOW 3 36 40 Left 2
SYMATTR InstName R12
SYMATTR Value 47k
SYMBOL res 1440 304 R180
WINDOW 0 36 76 Left 2
WINDOW 3 36 40 Left 2
SYMATTR InstName R13
SYMATTR Value 47k
SYMBOL res 1648 16 M0
SYMATTR InstName Rf1
SYMATTR Value 1k
SYMBOL res 1744 0 R90
WINDOW 0 0 56 VBottom 2
WINDOW 3 32 56 VTop 2
SYMATTR InstName Rg1
SYMATTR Value 0
SYMBOL res 1744 128 R90
WINDOW 0 0 56 VBottom 2
WINDOW 3 32 56 VTop 2
SYMATTR InstName Rg2
SYMATTR Value 0
TEXT 680 -464 Left 2 !.OPTIONS nomarch\n.options plotwinsize 0\n.options numdgt 7\n;options maxstep 10n\n.param C=12\n.param U=9.75
TEXT 680 -144 Left 2 !.ac dec 1000 10 1MEG\n*.loadbias stab.txt
TEXT 672 -272 Left 2 ;.options maxstep 1u\n.savebias stab.txt internal time=500u repeat\n.tran 0 10m 5m uic
TEXT 2360 320 Left 2 ;fc=1592Hz
TEXT 2408 -16 Left 2 ;PCM1804
TEXT 2336 -384 VRight 2 ;Charge glitch reservoir for the ADC
TEXT 760 312 Left 2 ;SINE(0 {U} 1k 0)\nPULSE(0 {U} 0 1u 1u 0 1m 10)
TEXT 1512 -384 VRight 2 ;Fc=-3dB=218kHz
TEXT 2192 416 Left 2 ;LM4562
TEXT 1672 -536 VRight 2 ;Gain here increases CMRR
TEXT 2464 -72 Left 2 ;Input range is 0 to 5V, referenced to 2.5V
TEXT 1696 -240 VLeft 2 ;Just place footprints of Rf1, Rg1 & Rg2 on PCB
TEXT 1696 344 Left 2 ;LM4562
TEXT 1696 -184 Left 2 ;LM4562
TEXT 1096 -776 Left 2 ;Design should be fine. Checked gain and frequency response (fc can be decreased if desired, but this fr is recomended by the datasheet)
LINE Normal 2416 -32 2400 80 2
LINE Normal 2608 -32 2416 -32 2
LINE Normal 2608 304 2608 -32 2
LINE Normal 2416 304 2608 304 2
LINE Normal 2400 80 2416 304 2
LINE Normal 2400 80 2400 80 2
