Version 4
SHEET 1 4088 1088
WIRE -1648 128 -1712 128
WIRE -1712 144 -1712 128
WIRE -880 144 -896 144
WIRE -736 144 -784 144
WIRE -576 144 -736 144
WIRE -480 144 -576 144
WIRE -736 160 -736 144
WIRE -480 192 -480 144
WIRE -576 208 -576 144
WIRE -800 224 -800 192
WIRE -736 224 -800 224
WIRE -1712 240 -1712 224
WIRE -1648 240 -1648 128
WIRE -1600 240 -1648 240
WIRE -1472 240 -1600 240
WIRE -1248 240 -1344 240
WIRE -1136 240 -1248 240
WIRE -1088 240 -1136 240
WIRE -992 240 -1008 240
WIRE -896 240 -896 144
WIRE -896 240 -992 240
WIRE -800 240 -800 224
WIRE -1600 256 -1600 240
WIRE -1248 256 -1248 240
WIRE -1136 256 -1136 240
WIRE -992 256 -992 240
WIRE -1472 272 -1472 240
WIRE -1456 272 -1472 272
WIRE -1344 272 -1344 240
WIRE -1344 272 -1360 272
WIRE -1456 304 -1472 304
WIRE -1344 304 -1360 304
WIRE -1712 336 -1712 320
WIRE -1600 336 -1600 320
WIRE -1600 336 -1712 336
WIRE -1472 336 -1472 304
WIRE -1472 336 -1600 336
WIRE -1344 336 -1344 304
WIRE -1248 336 -1248 320
WIRE -1248 336 -1344 336
WIRE -1136 336 -1136 320
WIRE -1136 336 -1248 336
WIRE -1088 336 -1136 336
WIRE -992 336 -992 320
WIRE -992 336 -1008 336
WIRE -800 336 -800 320
WIRE -800 336 -992 336
WIRE -576 336 -576 272
WIRE -576 336 -800 336
WIRE -480 336 -480 272
WIRE -480 336 -576 336
WIRE -576 352 -576 336
FLAG -1712 128 +VIN
FLAG -576 352 0
FLAG -576 144 +24V
SYMBOL voltage -1712 128 M0
WINDOW 123 0 0 Left 0
WINDOW 39 24 124 Left 2
SYMATTR InstName V1
SYMATTR Value SINE(0 100m 100k)
SYMBOL Contrib\\Wurth\\PowerMagnetics\\Coupled\\WE-DD -1408 288 R0
SYMATTR SpiceModel 1260_744871004_4.7u
SYMATTR InstName L1
SYMBOL cap -1616 256 R0
SYMATTR InstName C12
SYMATTR Value 10µ
SYMATTR SpiceLine Rser=20m
SYMBOL cap -1264 256 R0
SYMATTR InstName C13
SYMATTR Value 10µ
SYMATTR SpiceLine Rser=20m
SYMBOL ind -1104 256 R270
WINDOW 0 32 56 VTop 2
WINDOW 3 5 56 VBottom 2
SYMATTR InstName L2
SYMATTR Value 4µ7
SYMBOL ind -992 320 R90
WINDOW 0 5 56 VBottom 2
WINDOW 3 32 56 VTop 2
SYMATTR InstName L3
SYMATTR Value 4µ7
SYMBOL cap -1152 256 R0
SYMATTR InstName C14
SYMATTR Value 10µ
SYMATTR SpiceLine Rser=20m
SYMBOL cap -1008 256 R0
SYMATTR InstName C15
SYMATTR Value 10µ
SYMATTR SpiceLine Rser=20m
SYMBOL pmos -880 192 R270
SYMATTR InstName M1
SYMBOL res -816 224 R0
SYMATTR InstName R1
SYMATTR Value 100k
SYMBOL zener -752 224 M180
WINDOW 0 24 64 Left 2
WINDOW 3 24 0 Left 2
SYMATTR InstName D1
SYMATTR Value BZX84C12L
SYMATTR Type tvsdiode
SYMBOL cap -592 208 R0
SYMATTR InstName C1
SYMATTR Value 10µ
SYMATTR SpiceLine Rser=20m
SYMBOL res -496 176 R0
SYMATTR InstName Rload
SYMATTR Value 7
SYMBOL voltage -1712 224 M0
WINDOW 123 0 0 Left 0
WINDOW 39 24 124 Left 2
SYMATTR InstName V2
SYMATTR Value PWL(0 0 5m -24 10m 24)
TEXT -1640 88 Left 2 !.tran 0 15m 0\n.options nomarch
TEXT -1448 176 Left 2 ;CM filter
TEXT -1096 176 Left 2 ;DM filter
TEXT -736 -160 VRight 2 ;Zener or TVS diode
TEXT -784 80 Left 2 ;RVPP
TEXT -832 -328 VRight 2 ;MOSFET with internal body diode
RECTANGLE Normal -1184 384 -1632 160 2
RECTANGLE Normal -928 384 -1168 160 2
RECTANGLE Normal -512 384 -912 64 2
