Version 4
SHEET 1 4692 5524
WIRE 1472 -320 1472 -336
WIRE 1472 -224 1472 -240
WIRE 1488 -224 1472 -224
WIRE 1472 -208 1472 -224
WIRE 2032 -144 1872 -144
WIRE 2176 -144 2112 -144
WIRE 1472 -112 1472 -128
WIRE 1680 -112 1680 -128
WIRE 1728 -112 1680 -112
WIRE 1680 -96 1680 -112
WIRE 1872 -96 1872 -144
WIRE 1984 -96 1872 -96
WIRE 2064 -96 2048 -96
WIRE 1920 0 1920 -16
WIRE 1728 32 1728 -112
WIRE 1744 32 1728 32
WIRE 1872 32 1872 -96
WIRE 1872 32 1824 32
WIRE 2064 32 2064 -96
WIRE 2080 32 2064 32
WIRE 2176 32 2176 -144
WIRE 2176 32 2160 32
WIRE 2288 32 2176 32
WIRE 2368 32 2288 32
WIRE 2464 32 2448 32
WIRE 1872 48 1872 32
WIRE 1888 48 1872 48
WIRE 2064 48 2064 32
WIRE 2064 48 2048 48
WIRE 2288 48 2288 32
WIRE 1584 80 1568 80
WIRE 1680 80 1680 -16
WIRE 1680 80 1664 80
WIRE 1888 80 1840 80
WIRE 2464 80 2464 32
WIRE 2480 80 2464 80
WIRE 1888 112 1872 112
WIRE 2064 112 2048 112
WIRE 1744 128 1728 128
WIRE 1872 128 1872 112
WIRE 1872 128 1824 128
WIRE 2064 128 2064 112
WIRE 2080 128 2064 128
WIRE 2176 128 2160 128
WIRE 2288 128 2288 112
WIRE 2288 128 2176 128
WIRE 2368 128 2288 128
WIRE 2464 128 2464 80
WIRE 2464 128 2448 128
WIRE 2496 160 2448 160
WIRE 1680 176 1680 80
WIRE 1920 176 1920 160
WIRE 2496 176 2496 160
WIRE 1872 240 1872 128
WIRE 1984 240 1872 240
WIRE 2064 240 2064 128
WIRE 2064 240 2048 240
WIRE 2304 240 2208 240
WIRE 1680 272 1680 256
WIRE 1728 272 1728 128
WIRE 1728 272 1680 272
WIRE 2496 272 2496 256
WIRE 1680 288 1680 272
WIRE 1872 304 1872 240
WIRE 2032 304 1872 304
WIRE 2176 304 2176 128
WIRE 2176 304 2112 304
WIRE 2256 336 2256 320
WIRE 2304 352 2304 240
WIRE 2304 352 2288 352
WIRE 1840 368 1840 80
WIRE 2208 368 2208 240
WIRE 2208 368 1840 368
WIRE 2224 368 2208 368
WIRE 2304 384 2288 384
WIRE 2352 384 2304 384
WIRE 2448 384 2448 160
WIRE 2448 384 2432 384
WIRE 2304 400 2304 384
WIRE 2256 416 2256 400
WIRE 2304 480 2304 464
FLAG 1488 -224 0
FLAG 1472 -112 -12V
FLAG 1472 -336 +12V
FLAG 2256 320 +12V
FLAG 2256 416 -12V
FLAG 2304 480 0
FLAG 2496 272 0
FLAG 2496 160 VCOM
FLAG 2480 80 0
FLAG 1920 -16 +12V
FLAG 1920 176 -12V
FLAG 1680 -128 HOT
FLAG 1568 80 0
FLAG 1680 288 COLD
SYMBOL voltage 1472 -336 R0
SYMATTR InstName V1
SYMATTR Value {C}
SYMBOL voltage 1472 -224 R0
SYMATTR InstName V2
SYMATTR Value {C}
SYMBOL Misc\\EuropeanResistor 2336 368 M90
WINDOW 0 5 56 VBottom 2
WINDOW 3 27 56 VTop 2
SYMATTR InstName R10
SYMATTR Value 1k
SYMBOL OpAmps\\LT6220 2256 368 M0
SYMATTR InstName U2
SYMBOL mylib\\Opamps\\OPA1632 1952 80 R0
SYMATTR InstName U1
SYMBOL cap 2288 400 R0
SYMATTR InstName C10
SYMATTR Value 100n
SYMBOL voltage 2496 160 R0
WINDOW 123 0 0 Left 0
WINDOW 39 0 0 Left 0
SYMATTR InstName V5
SYMATTR Value 2.5
SYMBOL Misc\\EuropeanResistor 2352 16 M90
WINDOW 0 5 56 VBottom 2
WINDOW 3 27 56 VTop 2
SYMATTR InstName RI-
SYMATTR Value 10k
SYMBOL Misc\\EuropeanResistor 2352 112 M90
WINDOW 0 5 56 VBottom 2
WINDOW 3 27 56 VTop 2
SYMATTR InstName RI+
SYMATTR Value 10k
SYMBOL cap 2272 48 R0
SYMATTR InstName C3
SYMATTR Value 2n7
SYMBOL Misc\\EuropeanResistor 2064 16 M90
WINDOW 0 5 56 VBottom 2
WINDOW 3 27 56 VTop 2
SYMATTR InstName R5
SYMATTR Value 40
SYMBOL Misc\\EuropeanResistor 2064 112 M90
WINDOW 0 5 56 VBottom 2
WINDOW 3 27 56 VTop 2
SYMATTR InstName R6
SYMATTR Value 40
SYMBOL cap 2048 -112 R90
WINDOW 0 0 32 VBottom 2
WINDOW 3 32 32 VTop 2
SYMATTR InstName C1
SYMATTR Value 1n
SYMBOL cap 2048 224 R90
WINDOW 0 0 32 VBottom 2
WINDOW 3 32 32 VTop 2
SYMATTR InstName C2
SYMATTR Value 1n
SYMBOL Misc\\EuropeanResistor 2016 -160 M90
WINDOW 0 5 56 VBottom 2
WINDOW 3 27 56 VTop 2
SYMATTR InstName R3
SYMATTR Value 270
SYMBOL Misc\\EuropeanResistor 2016 288 M90
WINDOW 0 5 56 VBottom 2
WINDOW 3 27 56 VTop 2
SYMATTR InstName R4
SYMATTR Value 270
SYMBOL Misc\\EuropeanResistor 1728 16 M90
WINDOW 0 5 56 VBottom 2
WINDOW 3 27 56 VTop 2
SYMATTR InstName R1
SYMATTR Value 1k
SYMBOL Misc\\EuropeanResistor 1728 112 M90
WINDOW 0 5 56 VBottom 2
WINDOW 3 27 56 VTop 2
SYMATTR InstName R2
SYMATTR Value 1k
SYMBOL voltage 1680 -112 M0
WINDOW 123 24 124 Left 2
WINDOW 39 0 0 Left 0
SYMATTR Value2 AC 0
SYMATTR InstName V3
SYMATTR Value 0
SYMBOL voltage 1680 160 M0
WINDOW 123 24 124 Left 2
WINDOW 39 0 0 Left 0
SYMATTR Value2 AC 0
SYMATTR InstName V4
SYMATTR Value 0
SYMBOL voltage 1680 80 R90
WINDOW 0 -32 56 VBottom 2
WINDOW 3 88 56 VTop 2
WINDOW 123 60 56 VTop 2
WINDOW 39 0 0 Left 0
SYMATTR InstName V6
SYMATTR Value PULSE(0 {U/2} 0 1n 1n 500u 1m 10)
SYMATTR Value2 AC 1
TEXT 856 -408 Left 2 !.OPTIONS nomarch\n.options plotwinsize 0\n.options numdgt 7\n;options maxstep 10n\n.param C=12\n.param U=1
TEXT 856 -88 Left 2 ;.ac dec 1000 10 1MEG\n*.loadbias stab.txt
TEXT 848 -216 Left 2 !.options maxstep 1u\n.savebias stab.txt internal time=500u repeat\n.tran 0 10m 5m uic
TEXT 2312 336 Left 2 ;fc=1592Hz
TEXT 2360 -16 Left 2 ;PCM1804
TEXT 2296 -376 VRight 2 ;Charge glitch reservoir for the ADC
TEXT 920 176 Left 2 ;External LPF before AAF?
TEXT 1296 376 Left 2 ;SINE(0 {U/2} 1k 0)\nPULSE(0 {U/2} 0 1u 1u 0 1m 10)
LINE Normal 2368 -32 2352 80 2
LINE Normal 2560 -32 2368 -32 2
LINE Normal 2560 304 2560 -32 2
LINE Normal 2368 304 2560 304 2
LINE Normal 2352 80 2368 304 2
LINE Normal 2352 80 2352 80 2
