Version 4
SHEET 1 4692 5524
WIRE 944 -208 944 -224
WIRE 1024 -208 944 -208
WIRE 1024 -192 1024 -208
WIRE 944 -144 944 -208
WIRE 1024 -96 1024 -112
WIRE 1024 -96 1008 -96
WIRE 1072 -96 1024 -96
WIRE 1168 -96 1152 -96
WIRE 1600 -96 1600 -112
WIRE 944 -32 944 -48
WIRE 944 -32 848 -32
WIRE 1168 -32 1168 -96
WIRE 944 -16 944 -32
WIRE 1600 0 1600 -16
WIRE 1248 16 1232 16
WIRE 1360 16 1328 16
WIRE 1360 32 1360 16
WIRE 944 80 944 64
WIRE 1168 80 1168 64
WIRE 1168 80 944 80
WIRE 944 96 944 80
WIRE 1360 128 1360 112
FLAG 944 96 0
FLAG 944 -224 +5VD1
FLAG 1360 128 0
FLAG 1600 0 0
FLAG 1600 -112 +5VD1
FLAG 848 -32 OE
SYMBOL npn 1232 -32 M0
SYMATTR InstName Q1
SYMBOL res 1344 0 R90
WINDOW 0 0 56 VBottom 2
WINDOW 3 32 56 VTop 2
SYMATTR InstName R1
SYMATTR Value 10k
SYMBOL res 928 -32 R0
SYMATTR InstName R2
SYMATTR Value 1k
SYMBOL pnp 1008 -48 R180
SYMATTR InstName Q2
SYMBOL res 1008 -208 R0
SYMATTR InstName R3
SYMATTR Value 1k
SYMBOL res 1168 -112 R90
WINDOW 0 0 56 VBottom 2
WINDOW 3 32 56 VTop 2
SYMATTR InstName R4
SYMATTR Value 1k
SYMBOL voltage 1360 16 R0
WINDOW 123 0 0 Left 0
WINDOW 39 0 0 Left 0
SYMATTR InstName V1
SYMATTR Value PULSE(0 3.3 10u 1n 1n 10u 20u)
SYMBOL voltage 1600 -112 R0
WINDOW 123 0 0 Left 0
WINDOW 39 0 0 Left 0
SYMATTR InstName V2
SYMATTR Value 5
TEXT 874 136 Left 2 !.tran 0 40u 0
TEXT 1088 -200 Left 2 ;R waarden finetunen en werking verifieren
