Version 4
SHEET 1 4692 5524
WIRE 1872 -208 1872 -224
WIRE 2256 -208 2256 -224
WIRE 1152 -128 1152 -144
WIRE 1872 -128 1872 -144
WIRE 2256 -128 2256 -144
WIRE 1152 -32 1152 -48
WIRE 1168 -32 1152 -32
WIRE 1152 -16 1152 -32
WIRE 1152 80 1152 64
FLAG 1168 -32 0
FLAG 1152 -144 +15VD
FLAG 1152 80 -15VD
FLAG 1872 -224 +15VD
FLAG 1872 -128 -15VD
FLAG 2256 -224 +15VD
FLAG 2256 -128 -15VD
SYMBOL OpAmps\\LT6220 1872 -176 R0
SYMATTR InstName U1
SYMBOL voltage 1152 -144 R0
SYMATTR InstName V1
SYMBOL voltage 1152 -32 R0
SYMATTR InstName V2
SYMBOL OpAmps\\LT6220 2256 -176 R0
SYMATTR InstName U2
SYMBOL res 1616 -160 R90
WINDOW 0 0 56 VBottom 2
WINDOW 3 32 56 VTop 2
SYMATTR InstName R1
SYMATTR Value 100k
TEXT 872 136 Left 2 !.tran 0 40u 0
