Version 4
SHEET 1 4692 5524
WIRE 1920 -320 1824 -320
WIRE 2000 -320 1920 -320
WIRE 2064 -320 2000 -320
WIRE 2160 -320 2144 -320
WIRE 2224 -320 2160 -320
WIRE 2320 -320 2304 -320
WIRE 2480 -304 2480 -320
WIRE 2576 -304 2480 -304
WIRE 1344 -288 1328 -288
WIRE 1440 -288 1424 -288
WIRE 1504 -288 1440 -288
WIRE 1600 -288 1584 -288
WIRE 1920 -288 1920 -320
WIRE 2000 -288 2000 -320
WIRE 1328 -256 1328 -288
WIRE 2160 -208 2160 -320
WIRE 2176 -208 2160 -208
WIRE 1824 -192 1824 -320
WIRE 1840 -192 1824 -192
WIRE 2272 -192 2240 -192
WIRE 2320 -192 2320 -320
WIRE 2320 -192 2272 -192
WIRE 2400 -192 2320 -192
WIRE 2576 -192 2400 -192
WIRE 1440 -176 1440 -288
WIRE 1456 -176 1440 -176
WIRE 1920 -176 1920 -224
WIRE 1920 -176 1904 -176
WIRE 2000 -176 2000 -224
WIRE 2000 -176 1920 -176
WIRE 2016 -176 2000 -176
WIRE 2160 -176 2080 -176
WIRE 2176 -176 2160 -176
WIRE 2672 -176 2640 -176
WIRE 2720 -176 2672 -176
WIRE 2832 -176 2800 -176
WIRE 2928 -176 2928 -192
WIRE 2928 -176 2896 -176
WIRE 1328 -160 1328 -176
WIRE 1344 -160 1328 -160
WIRE 1600 -160 1600 -288
WIRE 1600 -160 1520 -160
WIRE 1744 -160 1728 -160
WIRE 1840 -160 1824 -160
WIRE 2160 -160 2160 -176
WIRE 2480 -160 2480 -304
WIRE 2576 -160 2480 -160
WIRE 1328 -144 1328 -160
WIRE 1456 -144 1440 -144
WIRE 2400 -128 2400 -192
WIRE 1328 -32 1328 -64
WIRE 1344 -32 1328 -32
WIRE 1440 -32 1440 -144
WIRE 1440 -32 1424 -32
WIRE 1504 -32 1440 -32
WIRE 1600 -32 1584 -32
WIRE 2400 -32 2400 -48
WIRE 2576 -32 2400 -32
WIRE 2672 -16 2640 -16
WIRE 2720 -16 2672 -16
WIRE 2832 -16 2800 -16
WIRE 2928 -16 2928 -176
WIRE 2928 -16 2896 -16
WIRE 2480 0 2480 -160
WIRE 2576 0 2480 0
WIRE 2400 32 2400 -32
WIRE 1760 96 1760 80
WIRE 1840 96 1840 80
WIRE 2064 96 2064 80
WIRE 2400 128 2400 112
WIRE 2576 128 2400 128
WIRE 2672 144 2640 144
WIRE 2720 144 2672 144
WIRE 2832 144 2800 144
WIRE 2928 144 2928 -16
WIRE 2928 144 2896 144
WIRE 2480 160 2480 0
WIRE 2576 160 2480 160
WIRE 1760 192 1760 176
WIRE 1776 192 1760 192
WIRE 1840 192 1840 176
WIRE 2064 192 2064 176
WIRE 2400 192 2400 128
WIRE 1760 208 1760 192
WIRE 2400 288 2400 272
WIRE 2576 288 2400 288
WIRE 1760 304 1760 288
WIRE 2400 304 2400 288
WIRE 2672 304 2640 304
WIRE 2720 304 2672 304
WIRE 2832 304 2800 304
WIRE 2928 304 2928 144
WIRE 2928 304 2896 304
WIRE 2480 320 2480 160
WIRE 2528 320 2480 320
WIRE 2576 320 2528 320
WIRE 2480 368 2480 320
WIRE 2528 368 2528 320
FLAG 1776 192 0
FLAG 1760 80 +15VD
FLAG 1760 304 -15VD
FLAG 1872 -208 +15VD
FLAG 1872 -144 -15VD
FLAG 2208 -224 +15VD
FLAG 2208 -160 -15VD
FLAG 2160 -80 0
FLAG 2272 -192 VRECT
FLAG 1840 192 0
FLAG 1840 80 Audio
FLAG 1728 -160 Audio
FLAG 2064 192 0
FLAG 2064 80 +5VD
FLAG 2400 384 0
FLAG 2608 -208 +5VD
FLAG 2576 -304 +200mV_REF
FLAG 2672 304 R1
FLAG 2672 144 O1
FLAG 2672 -16 G2
FLAG 2672 -176 G1
FLAG 2608 -144 0
FLAG 2608 -48 +5VD
FLAG 2608 16 0
FLAG 2608 112 +5VD
FLAG 2608 176 0
FLAG 2608 272 +5VD
FLAG 2608 336 0
FLAG 2480 448 0
FLAG 2480 -400 +5VD
FLAG 2528 432 0
FLAG 2928 -192 +5VD
FLAG 1488 -192 +15VD
FLAG 1488 -128 -15VD
FLAG 1600 -32 0
FLAG 1344 -160 0
SYMBOL OpAmps\\LT6220 1872 -176 R0
SYMATTR InstName U1
SYMBOL voltage 1760 80 R0
WINDOW 123 0 0 Left 0
WINDOW 39 0 0 Left 0
SYMATTR InstName V1
SYMATTR Value 15
SYMBOL voltage 1760 192 R0
WINDOW 123 0 0 Left 0
WINDOW 39 0 0 Left 0
SYMATTR InstName V2
SYMATTR Value 15
SYMBOL OpAmps\\LT6220 2208 -192 R0
SYMATTR InstName U2
SYMBOL res 1840 -176 R90
WINDOW 0 0 56 VBottom 2
WINDOW 3 32 56 VTop 2
SYMATTR InstName R1
SYMATTR Value 100k
SYMBOL cap 1904 -288 R0
SYMATTR InstName C1
SYMATTR Value 47p
SYMBOL diode 1984 -288 R0
SYMATTR InstName D1
SYMATTR Value 1N4148
SYMBOL diode 2016 -160 R270
WINDOW 0 32 32 VTop 2
WINDOW 3 0 32 VBottom 2
SYMATTR InstName D2
SYMATTR Value 1N4148
SYMBOL res 2176 -176 M0
SYMATTR InstName R2
SYMATTR Value 10k
SYMBOL res 2160 -336 R90
WINDOW 0 0 56 VBottom 2
WINDOW 3 32 56 VTop 2
SYMATTR InstName R3
SYMATTR Value 10k
SYMBOL res 2320 -336 R90
WINDOW 0 0 56 VBottom 2
WINDOW 3 32 56 VTop 2
SYMATTR InstName R4
SYMATTR Value 10k
SYMBOL voltage 1840 80 R0
WINDOW 123 0 0 Left 0
WINDOW 39 0 0 Left 0
SYMATTR InstName V3
SYMATTR Value SINE(0 2 1k)
SYMBOL voltage 2064 80 R0
WINDOW 123 0 0 Left 0
WINDOW 39 0 0 Left 0
SYMATTR InstName V4
SYMATTR Value 5
SYMBOL res 2416 -144 M0
SYMATTR InstName R8
SYMATTR Value 3k9
SYMBOL res 2416 16 M0
SYMATTR InstName R10
SYMATTR Value 2k
SYMBOL res 2416 176 M0
SYMATTR InstName R12
SYMATTR Value 1k
SYMBOL res 2416 288 M0
SYMATTR InstName R13
SYMATTR Value 1k
SYMBOL Comparators\\LT1720 2608 -240 R0
SYMATTR InstName U3
SYMBOL Comparators\\LT1720 2608 -80 R0
SYMATTR InstName U4
SYMBOL Comparators\\LT1720 2608 80 R0
SYMATTR InstName U5
SYMBOL Comparators\\LT1720 2608 240 R0
SYMATTR InstName U6
SYMBOL res 2496 352 M0
SYMATTR InstName R5
SYMATTR Value 1k
SYMBOL res 2496 -416 M0
SYMATTR InstName R7
SYMATTR Value 24k
SYMBOL cap 2512 368 R0
SYMATTR InstName C2
SYMATTR Value 10µ
SYMBOL LED 2896 -192 R90
WINDOW 0 0 32 VBottom 2
WINDOW 3 32 32 VTop 2
SYMATTR InstName D3
SYMATTR Value NSCW100
SYMATTR Description Diode
SYMATTR Type diode
SYMBOL LED 2896 -32 R90
WINDOW 0 0 32 VBottom 2
WINDOW 3 32 32 VTop 2
SYMATTR InstName D4
SYMATTR Value NSCW100
SYMATTR Description Diode
SYMATTR Type diode
SYMBOL LED 2896 128 R90
WINDOW 0 0 32 VBottom 2
WINDOW 3 32 32 VTop 2
SYMATTR InstName D5
SYMATTR Value NSCW100
SYMATTR Description Diode
SYMATTR Type diode
SYMBOL LED 2896 288 R90
WINDOW 0 0 32 VBottom 2
WINDOW 3 32 32 VTop 2
SYMATTR InstName D6
SYMATTR Value NSCW100
SYMATTR Description Diode
SYMATTR Type diode
SYMBOL res 2816 -192 R90
WINDOW 0 0 56 VBottom 2
WINDOW 3 32 56 VTop 2
SYMATTR InstName R9
SYMATTR Value 330
SYMBOL res 2816 -32 R90
WINDOW 0 0 56 VBottom 2
WINDOW 3 32 56 VTop 2
SYMATTR InstName R11
SYMATTR Value 330
SYMBOL res 2816 128 R90
WINDOW 0 0 56 VBottom 2
WINDOW 3 32 56 VTop 2
SYMATTR InstName R14
SYMATTR Value 330
SYMBOL res 2816 288 R90
WINDOW 0 0 56 VBottom 2
WINDOW 3 32 56 VTop 2
SYMATTR InstName R15
SYMATTR Value 330
SYMBOL OpAmps\\LT6220 1488 -160 R0
SYMATTR InstName U7
SYMBOL res 1440 -304 R90
WINDOW 0 0 56 VBottom 2
WINDOW 3 32 56 VTop 2
SYMATTR InstName R16
SYMATTR Value 150k
SYMBOL res 1600 -304 R90
WINDOW 0 0 56 VBottom 2
WINDOW 3 32 56 VTop 2
SYMATTR InstName R17
SYMATTR Value 10k
SYMBOL res 1440 -16 M270
WINDOW 0 32 56 VTop 2
WINDOW 3 0 56 VBottom 2
SYMATTR InstName R6
SYMATTR Value 150k
SYMBOL res 1600 -16 M270
WINDOW 0 32 56 VTop 2
WINDOW 3 0 56 VBottom 2
SYMATTR InstName R18
SYMATTR Value 10k
SYMBOL voltage 1328 -160 M0
WINDOW 123 0 0 Left 0
WINDOW 39 0 0 Left 0
SYMATTR InstName V5
SYMATTR Value SINE(0 12 1k)
SYMBOL voltage 1328 -272 M0
WINDOW 123 0 0 Left 0
WINDOW 39 0 0 Left 0
SYMATTR InstName V6
SYMATTR Value SINE(0 12 1k)
TEXT 1840 264 Left 2 !.tran 0 100m 98m
TEXT 1752 -344 Left 2 ;Precision rectifier
TEXT 2360 -368 Left 2 ;LPF
TEXT 2760 -400 Left 2 ;1.74V     clipping\n870mV   -6dB\n435mV  -12dB\n218mV  -18dB
TEXT 2248 -64 Left 2 ;TL072
TEXT 2616 -400 Left 2 ;LM339
TEXT 1232 -376 Left 2 ;Difference amplifier with gain of 0,0714
TEXT 1232 -336 Left 2 ;TL072
RECTANGLE Normal 2336 -48 1744 -368 2
