Version 4
SHEET 1 4692 5524
WIRE 1920 -320 1824 -320
WIRE 2000 -320 1920 -320
WIRE 2064 -320 2000 -320
WIRE 2160 -320 2144 -320
WIRE 2224 -320 2160 -320
WIRE 2320 -320 2304 -320
WIRE 1920 -288 1920 -320
WIRE 2000 -288 2000 -320
WIRE 2160 -208 2160 -320
WIRE 2176 -208 2160 -208
WIRE 2784 -208 2768 -208
WIRE 2880 -208 2864 -208
WIRE 1824 -192 1824 -320
WIRE 1840 -192 1824 -192
WIRE 2272 -192 2240 -192
WIRE 2320 -192 2320 -320
WIRE 2320 -192 2272 -192
WIRE 2368 -192 2320 -192
WIRE 2464 -192 2448 -192
WIRE 2480 -192 2464 -192
WIRE 2624 -192 2480 -192
WIRE 1920 -176 1920 -224
WIRE 1920 -176 1904 -176
WIRE 2000 -176 2000 -224
WIRE 2000 -176 1920 -176
WIRE 2016 -176 2000 -176
WIRE 2160 -176 2080 -176
WIRE 2176 -176 2160 -176
WIRE 2464 -176 2464 -192
WIRE 2624 -176 2624 -192
WIRE 1744 -160 1728 -160
WIRE 1840 -160 1824 -160
WIRE 2160 -160 2160 -176
WIRE 1152 -128 1152 -144
WIRE 1232 -128 1232 -144
WIRE 1424 -128 1424 -144
WIRE 2624 -80 2624 -96
WIRE 2640 -80 2624 -80
WIRE 2768 -80 2768 -208
WIRE 2768 -80 2720 -80
WIRE 2784 -80 2768 -80
WIRE 2880 -64 2880 -208
WIRE 2880 -64 2848 -64
WIRE 2736 -48 2736 -128
WIRE 2784 -48 2736 -48
WIRE 1152 -32 1152 -48
WIRE 1168 -32 1152 -32
WIRE 1232 -32 1232 -48
WIRE 1424 -32 1424 -48
WIRE 1152 -16 1152 -32
WIRE 2736 32 2736 -48
WIRE 2784 32 2768 32
WIRE 2880 32 2864 32
WIRE 2624 64 2624 -80
WIRE 1152 80 1152 64
WIRE 2624 160 2624 144
WIRE 2640 160 2624 160
WIRE 2768 160 2768 32
WIRE 2768 160 2720 160
WIRE 2784 160 2768 160
WIRE 2880 176 2880 32
WIRE 2880 176 2848 176
WIRE 2736 192 2736 32
WIRE 2784 192 2736 192
WIRE 2784 272 2768 272
WIRE 2880 272 2864 272
WIRE 2624 304 2624 160
WIRE 2624 400 2624 384
WIRE 2640 400 2624 400
WIRE 2768 400 2768 272
WIRE 2768 400 2720 400
WIRE 2784 400 2768 400
WIRE 2880 416 2880 272
WIRE 2880 416 2848 416
WIRE 2736 432 2736 192
WIRE 2784 432 2736 432
WIRE 2784 512 2768 512
WIRE 2880 512 2864 512
WIRE 2624 544 2624 400
WIRE 2624 640 2624 624
WIRE 2640 640 2624 640
WIRE 2768 640 2768 512
WIRE 2768 640 2720 640
WIRE 2784 640 2768 640
WIRE 2624 656 2624 640
WIRE 2880 656 2880 512
WIRE 2880 656 2848 656
WIRE 2736 672 2736 432
WIRE 2736 672 2720 672
WIRE 2768 672 2736 672
WIRE 2784 672 2768 672
WIRE 2720 704 2720 672
WIRE 2768 704 2768 672
WIRE 2768 784 2768 768
FLAG 1168 -32 0
FLAG 1152 -144 +15VD
FLAG 1152 80 -15VD
FLAG 1872 -208 +15VD
FLAG 1872 -144 -15VD
FLAG 2208 -224 +15VD
FLAG 2208 -160 -15VD
FLAG 2160 -80 0
FLAG 2272 -192 VRECT
FLAG 1232 -32 0
FLAG 1232 -144 Audio
FLAG 1728 -160 Audio
FLAG 2816 -32 0
FLAG 2816 -96 +5VD
FLAG 1424 -32 0
FLAG 1424 -144 +5VD
FLAG 2816 208 0
FLAG 2816 144 +5VD
FLAG 2816 448 0
FLAG 2816 384 +5VD
FLAG 2816 688 0
FLAG 2816 624 +5VD
FLAG 2624 736 0
FLAG 2464 -112 0
FLAG 2480 -192 VLPF
FLAG 2720 784 0
FLAG 2736 -208 +5VD
FLAG 2736 32 +2.5V_REF
FLAG 2768 784 0
SYMBOL OpAmps\\LT6220 1872 -176 R0
SYMATTR InstName U1
SYMBOL voltage 1152 -144 R0
WINDOW 123 0 0 Left 0
WINDOW 39 0 0 Left 0
SYMATTR InstName V1
SYMATTR Value 15
SYMBOL voltage 1152 -32 R0
WINDOW 123 0 0 Left 0
WINDOW 39 0 0 Left 0
SYMATTR InstName V2
SYMATTR Value 15
SYMBOL OpAmps\\LT6220 2208 -192 R0
SYMATTR InstName U2
SYMBOL res 1840 -176 R90
WINDOW 0 0 56 VBottom 2
WINDOW 3 32 56 VTop 2
SYMATTR InstName R1
SYMATTR Value 100k
SYMBOL cap 1904 -288 R0
SYMATTR InstName C1
SYMATTR Value 47p
SYMBOL diode 1984 -288 R0
SYMATTR InstName D1
SYMATTR Value 1N4148
SYMBOL diode 2016 -160 R270
WINDOW 0 32 32 VTop 2
WINDOW 3 0 32 VBottom 2
SYMATTR InstName D2
SYMATTR Value 1N4148
SYMBOL res 2176 -176 M0
SYMATTR InstName R2
SYMATTR Value 10k
SYMBOL res 2160 -336 R90
WINDOW 0 0 56 VBottom 2
WINDOW 3 32 56 VTop 2
SYMATTR InstName R3
SYMATTR Value 10k
SYMBOL res 2320 -336 R90
WINDOW 0 0 56 VBottom 2
WINDOW 3 32 56 VTop 2
SYMATTR InstName R4
SYMATTR Value 10k
SYMBOL voltage 1232 -144 R0
WINDOW 123 0 0 Left 0
WINDOW 39 0 0 Left 0
SYMATTR InstName V3
SYMATTR Value SINE(0 1 1k)
SYMBOL OpAmps\\LT6220 2816 -64 R0
SYMATTR InstName U3
SYMBOL voltage 1424 -144 R0
WINDOW 123 0 0 Left 0
WINDOW 39 0 0 Left 0
SYMATTR InstName V4
SYMATTR Value 5
SYMBOL res 2880 -224 R90
WINDOW 0 0 56 VBottom 2
WINDOW 3 32 56 VTop 2
SYMATTR InstName R5
SYMATTR Value 100k
SYMBOL res 2640 -192 M0
SYMATTR InstName R6
SYMATTR Value 8k
SYMBOL OpAmps\\LT6220 2816 176 R0
SYMATTR InstName U4
SYMBOL res 2880 16 R90
WINDOW 0 0 56 VBottom 2
WINDOW 3 32 56 VTop 2
SYMATTR InstName R7
SYMATTR Value 100k
SYMBOL res 2640 48 M0
SYMATTR InstName R8
SYMATTR Value 4k
SYMBOL OpAmps\\LT6220 2816 416 R0
SYMATTR InstName U5
SYMBOL res 2880 256 R90
WINDOW 0 0 56 VBottom 2
WINDOW 3 32 56 VTop 2
SYMATTR InstName R9
SYMATTR Value 100k
SYMBOL res 2640 288 M0
SYMATTR InstName R10
SYMATTR Value 2k
SYMBOL OpAmps\\LT6220 2816 656 R0
SYMATTR InstName U6
SYMBOL res 2880 496 R90
WINDOW 0 0 56 VBottom 2
WINDOW 3 32 56 VTop 2
SYMATTR InstName R11
SYMATTR Value 100k
SYMBOL res 2640 528 M0
SYMATTR InstName R12
SYMATTR Value 1k
SYMBOL res 2640 640 M0
SYMATTR InstName R13
SYMATTR Value 1k
SYMBOL res 2736 -96 R90
WINDOW 0 0 56 VBottom 2
WINDOW 3 32 56 VTop 2
SYMATTR InstName R14
SYMATTR Value 10k
SYMBOL res 2736 144 R90
WINDOW 0 0 56 VBottom 2
WINDOW 3 32 56 VTop 2
SYMATTR InstName R15
SYMATTR Value 10k
SYMBOL res 2736 384 R90
WINDOW 0 0 56 VBottom 2
WINDOW 3 32 56 VTop 2
SYMATTR InstName R16
SYMATTR Value 10k
SYMBOL res 2736 624 R90
WINDOW 0 0 56 VBottom 2
WINDOW 3 32 56 VTop 2
SYMATTR InstName R17
SYMATTR Value 10k
SYMBOL res 2464 -208 R90
WINDOW 0 0 56 VBottom 2
WINDOW 3 32 56 VTop 2
SYMATTR InstName R18
SYMATTR Value 1k
SYMBOL cap 2448 -176 R0
SYMATTR InstName C2
SYMATTR Value 100n
SYMBOL res 2736 688 M0
SYMATTR InstName R19
SYMATTR Value 1k
SYMBOL res 2752 -224 M0
SYMATTR InstName R20
SYMATTR Value 1k
SYMBOL cap 2752 704 R0
SYMATTR InstName C3
SYMATTR Value 100n
TEXT 872 136 Left 2 !.tran 0 4m 0
TEXT 1752 -344 Left 2 ;Precision rectifier
TEXT 2992 -56 Left 2 ;Uitgang hoog of laag trekken?
TEXT 2360 -256 Left 2 ;LPF
RECTANGLE Normal 2336 -48 1744 -368 2
RECTANGLE Normal 2544 -272 2352 -80 2
