Version 4
SHEET 1 4692 5524
WIRE 1920 -320 1824 -320
WIRE 2000 -320 1920 -320
WIRE 2064 -320 2000 -320
WIRE 2160 -320 2144 -320
WIRE 2224 -320 2160 -320
WIRE 2320 -320 2304 -320
WIRE 1920 -288 1920 -320
WIRE 2000 -288 2000 -320
WIRE 2160 -208 2160 -320
WIRE 2176 -208 2160 -208
WIRE 1824 -192 1824 -320
WIRE 1840 -192 1824 -192
WIRE 2272 -192 2240 -192
WIRE 2320 -192 2320 -320
WIRE 2320 -192 2272 -192
WIRE 1920 -176 1920 -224
WIRE 1920 -176 1904 -176
WIRE 2000 -176 2000 -224
WIRE 2000 -176 1920 -176
WIRE 2016 -176 2000 -176
WIRE 2160 -176 2080 -176
WIRE 2176 -176 2160 -176
WIRE 1744 -160 1728 -160
WIRE 1840 -160 1824 -160
WIRE 2160 -160 2160 -176
WIRE 1152 -128 1152 -144
WIRE 1232 -128 1232 -144
WIRE 1424 -128 1424 -144
WIRE 1152 -32 1152 -48
WIRE 1168 -32 1152 -32
WIRE 1232 -32 1232 -48
WIRE 1424 -32 1424 -48
WIRE 1152 -16 1152 -32
WIRE 1152 80 1152 64
FLAG 1168 -32 0
FLAG 1152 -144 +15VD
FLAG 1152 80 -15VD
FLAG 1872 -208 +15VD
FLAG 1872 -144 -15VD
FLAG 2208 -224 +15VD
FLAG 2208 -160 -15VD
FLAG 2160 -80 0
FLAG 2272 -192 VRECT
FLAG 1232 -32 0
FLAG 1232 -144 Audio
FLAG 1728 -160 Audio
FLAG 2624 -160 0
FLAG 2624 -224 +5VD
FLAG 1424 -32 0
FLAG 1424 -144 +5VD
SYMBOL OpAmps\\LT6220 1872 -176 R0
SYMATTR InstName U1
SYMBOL voltage 1152 -144 R0
WINDOW 123 0 0 Left 0
WINDOW 39 0 0 Left 0
SYMATTR InstName V1
SYMATTR Value 15
SYMBOL voltage 1152 -32 R0
WINDOW 123 0 0 Left 0
WINDOW 39 0 0 Left 0
SYMATTR InstName V2
SYMATTR Value 15
SYMBOL OpAmps\\LT6220 2208 -192 R0
SYMATTR InstName U2
SYMBOL res 1840 -176 R90
WINDOW 0 0 56 VBottom 2
WINDOW 3 32 56 VTop 2
SYMATTR InstName R1
SYMATTR Value 100k
SYMBOL cap 1904 -288 R0
SYMATTR InstName C1
SYMATTR Value 47p
SYMBOL diode 1984 -288 R0
SYMATTR InstName D1
SYMATTR Value 1N4148
SYMBOL diode 2016 -160 R270
WINDOW 0 32 32 VTop 2
WINDOW 3 0 32 VBottom 2
SYMATTR InstName D2
SYMATTR Value 1N4148
SYMBOL res 2176 -176 M0
SYMATTR InstName R2
SYMATTR Value 10k
SYMBOL res 2160 -336 R90
WINDOW 0 0 56 VBottom 2
WINDOW 3 32 56 VTop 2
SYMATTR InstName R3
SYMATTR Value 10k
SYMBOL res 2320 -336 R90
WINDOW 0 0 56 VBottom 2
WINDOW 3 32 56 VTop 2
SYMATTR InstName R4
SYMATTR Value 10k
SYMBOL voltage 1232 -144 R0
WINDOW 123 0 0 Left 0
WINDOW 39 0 0 Left 0
SYMATTR InstName V3
SYMATTR Value SINE(0 1 1k)
SYMBOL OpAmps\\LT6220 2624 -192 R0
SYMATTR InstName U3
SYMBOL voltage 1424 -144 R0
WINDOW 123 0 0 Left 0
WINDOW 39 0 0 Left 0
SYMATTR InstName V4
SYMATTR Value 5
TEXT 872 136 Left 2 !.tran 0 4m 0
TEXT 1752 -344 Left 2 ;Precision rectifier
RECTANGLE Normal 2336 -48 1744 -368 2
