Version 4
SHEET 1 1656 1208
WIRE 544 -608 528 -608
WIRE -1632 -384 -1632 -416
WIRE -1632 -256 -1632 -304
WIRE 544 -176 480 -176
WIRE 704 -176 624 -176
WIRE 768 -176 704 -176
WIRE 1008 -176 848 -176
WIRE -1632 -160 -1632 -176
WIRE -32 -160 -160 -160
WIRE 208 -160 48 -160
WIRE -1632 -32 -1632 -80
WIRE 128 -16 80 -16
WIRE 208 -16 208 -160
WIRE 208 -16 192 -16
WIRE -160 0 -160 -160
WIRE -160 0 -192 0
WIRE -128 0 -160 0
WIRE 48 0 -48 0
WIRE -160 32 -160 0
WIRE 816 32 816 -96
WIRE 48 64 48 0
WIRE 80 64 80 -16
WIRE 80 64 48 64
WIRE 128 64 80 64
WIRE 208 80 208 -16
WIRE 208 80 192 80
WIRE 240 80 240 -384
WIRE 240 80 208 80
WIRE 272 80 240 80
WIRE 432 80 352 80
WIRE 704 80 704 -176
WIRE 784 80 704 80
WIRE 1008 80 1008 -176
WIRE 1008 80 944 80
WIRE 1152 80 1008 80
WIRE 128 96 80 96
WIRE 480 96 480 -176
WIRE -160 112 -160 96
WIRE -160 112 -192 112
WIRE -112 112 -160 112
WIRE 32 112 -32 112
WIRE 80 112 80 96
WIRE 80 112 32 112
WIRE 784 112 672 112
WIRE 160 144 160 112
WIRE 224 144 160 144
WIRE 784 144 736 144
WIRE 1024 144 944 144
WIRE 1152 144 1024 144
WIRE -160 160 -160 112
WIRE 32 192 32 176
WIRE 672 256 672 112
WIRE 848 272 848 192
WIRE 912 272 848 272
WIRE -1632 304 -1632 272
WIRE 432 304 432 80
WIRE 544 304 432 304
WIRE 736 304 736 144
WIRE 736 304 624 304
WIRE 928 304 736 304
WIRE 1024 304 1024 144
WIRE 1024 304 1008 304
WIRE 816 320 816 192
WIRE -1632 432 -1632 384
WIRE -1536 432 -1632 432
WIRE -1632 480 -1632 432
WIRE -1632 640 -1632 560
FLAG 32 192 0
FLAG -160 240 0
FLAG -1632 -256 0
FLAG -1632 -416 VOUT+
FLAG -1632 -32 VOUT-
FLAG -272 0 VOUT+
FLAG -272 112 VOUT-
FLAG -1632 -176 0
FLAG -1536 432 0
FLAG -1632 272 V+
FLAG -1632 640 V-
FLAG 160 48 V+
FLAG 224 144 V-
FLAG 816 -96 V+
FLAG 816 320 V-
FLAG 912 272 0
FLAG 480 96 0
FLAG 672 256 0
FLAG 240 -384 RCA/JACK
FLAG 1152 80 +XLR
FLAG 1152 144 -XLR
DATAFLAG 1008 80 ""
DATAFLAG 1008 144 ""
DATAFLAG 1136 80 ""
SYMBOL OpAmps\\LT6220 160 80 R0
SYMATTR InstName U1
SYMBOL res -176 -16 R90
WINDOW 0 0 56 VBottom 2
WINDOW 3 32 56 VTop 2
SYMATTR InstName R1
SYMATTR Value 15k
SYMBOL res -176 96 R90
WINDOW 0 0 56 VBottom 2
WINDOW 3 32 56 VTop 2
SYMATTR InstName R2
SYMATTR Value 15k
SYMBOL cap -176 32 R0
SYMATTR InstName C1
SYMATTR Value 1500p
SYMBOL cap 16 112 R0
SYMATTR InstName C2
SYMATTR Value 330p
SYMBOL cap 192 -32 R90
WINDOW 0 0 32 VBottom 2
WINDOW 3 32 32 VTop 2
SYMATTR InstName C3
SYMATTR Value 330p
SYMBOL res -32 -16 R90
WINDOW 0 0 56 VBottom 2
WINDOW 3 32 56 VTop 2
SYMATTR InstName R3
SYMATTR Value 820
SYMBOL res -16 96 R90
WINDOW 0 0 56 VBottom 2
WINDOW 3 32 56 VTop 2
SYMATTR InstName R4
SYMATTR Value 720
SYMBOL res -144 256 R180
WINDOW 0 36 76 Left 2
WINDOW 3 36 40 Left 2
SYMATTR InstName R5
SYMATTR Value 7k
SYMBOL voltage -1632 -400 R0
WINDOW 3 24 44 Left 2
WINDOW 123 0 0 Left 0
WINDOW 39 0 0 Left 0
SYMATTR Value SINE(2.5V 2 1K)
SYMATTR InstName V1
SYMBOL voltage -1632 -176 R0
WINDOW 3 24 44 Left 2
WINDOW 123 0 0 Left 0
WINDOW 39 0 0 Left 0
SYMATTR Value SINE(-2.5 2 1K)
SYMATTR InstName V2
SYMBOL voltage -1632 288 R0
WINDOW 123 0 0 Left 0
WINDOW 39 0 0 Left 0
SYMATTR InstName V3
SYMATTR Value 15
SYMBOL voltage -1632 464 R0
WINDOW 123 0 0 Left 0
WINDOW 39 0 0 Left 0
SYMATTR InstName V4
SYMATTR Value 15
SYMBOL res 864 -192 R90
WINDOW 0 0 56 VBottom 2
WINDOW 3 32 56 VTop 2
SYMATTR InstName R9
SYMATTR Value 100k
SYMBOL res 640 -192 R90
WINDOW 0 0 56 VBottom 2
WINDOW 3 32 56 VTop 2
SYMATTR InstName R10
SYMATTR Value 3.5k
SYMBOL OPA1632 848 112 R0
SYMATTR InstName U2
SYMBOL res 640 288 R90
WINDOW 0 0 56 VBottom 2
WINDOW 3 32 56 VTop 2
SYMATTR InstName R8
SYMATTR Value 3.5k
SYMBOL res 1024 288 R90
WINDOW 0 0 56 VBottom 2
WINDOW 3 32 56 VTop 2
SYMATTR InstName R11
SYMATTR Value 100k
SYMBOL res 368 64 R90
WINDOW 0 0 56 VBottom 2
WINDOW 3 32 56 VTop 2
SYMATTR InstName R6
SYMATTR Value 47
SYMBOL res 64 -176 R90
WINDOW 0 0 56 VBottom 2
WINDOW 3 32 56 VTop 2
SYMATTR InstName R7
SYMATTR Value 7k
TEXT -1664 88 Left 2 !.tran 5m
