Version 4
SHEET 1 2100 1208
WIRE -32 -160 -160 -160
WIRE 208 -160 48 -160
WIRE 128 -32 80 -32
WIRE 208 -32 208 -160
WIRE 208 -32 192 -32
WIRE -672 -16 -672 -32
WIRE -272 0 -288 0
WIRE -160 0 -160 -160
WIRE -160 0 -192 0
WIRE -128 0 -160 0
WIRE 48 0 -48 0
WIRE -160 32 -160 0
WIRE 48 64 48 0
WIRE 80 64 80 -32
WIRE 80 64 48 64
WIRE 128 64 80 64
WIRE -672 80 -672 64
WIRE -656 80 -672 80
WIRE 208 80 208 -32
WIRE 208 80 192 80
WIRE 256 80 208 80
WIRE 352 80 336 80
WIRE -672 96 -672 80
WIRE 128 96 80 96
WIRE -272 112 -288 112
WIRE -160 112 -160 96
WIRE -160 112 -192 112
WIRE -112 112 -160 112
WIRE 32 112 -32 112
WIRE 80 112 80 96
WIRE 80 112 32 112
WIRE 160 128 160 112
WIRE -160 160 -160 112
WIRE -672 192 -672 176
WIRE 32 192 32 176
WIRE -96 416 -112 416
WIRE 0 416 -16 416
WIRE 16 416 0 416
WIRE 320 416 96 416
WIRE 0 496 0 416
WIRE 64 496 0 496
WIRE 208 496 128 496
WIRE 48 560 48 544
WIRE 208 592 208 496
WIRE 224 592 208 592
WIRE 320 592 320 416
WIRE 320 592 304 592
WIRE 336 592 320 592
WIRE 368 592 336 592
WIRE 0 608 0 496
WIRE 16 608 0 608
WIRE 208 608 208 592
WIRE 208 608 176 608
WIRE 336 608 336 592
WIRE 16 640 0 640
WIRE -784 656 -784 640
WIRE 16 672 0 672
WIRE 208 672 176 672
WIRE 208 688 208 672
WIRE 224 688 208 688
WIRE 320 688 304 688
WIRE 336 688 336 672
WIRE 336 688 320 688
WIRE 368 688 336 688
WIRE 48 736 48 720
WIRE -784 752 -784 736
WIRE -768 752 -784 752
WIRE -784 768 -784 752
WIRE 0 784 0 672
WIRE 64 784 0 784
WIRE 208 784 208 688
WIRE 208 784 128 784
WIRE -784 864 -784 848
WIRE -96 864 -112 864
WIRE 0 864 0 784
WIRE 0 864 -16 864
WIRE 16 864 0 864
WIRE 320 864 320 688
WIRE 320 864 96 864
FLAG 32 192 0
FLAG -160 240 0
FLAG -672 -32 VOUT+
FLAG -672 192 VOUT-
FLAG -288 0 VOUT+
FLAG -288 112 VOUT-
FLAG -656 80 0
FLAG -768 752 0
FLAG -784 640 V+
FLAG -784 864 V-
FLAG 160 48 V+
FLAG 160 128 V-
FLAG 48 544 V+
FLAG 48 736 V-
FLAG 0 640 0
FLAG 352 80 RCA/JACK
FLAG 368 592 +XLR
FLAG 368 688 -XLR
FLAG -112 416 VOUT+
FLAG -112 864 VOUT-
SYMBOL OpAmps\\LT6220 160 80 R0
SYMATTR InstName U1
SYMBOL res -176 -16 R90
WINDOW 0 0 56 VBottom 2
WINDOW 3 32 56 VTop 2
SYMATTR InstName R1
SYMATTR Value 10k
SYMBOL res -176 96 R90
WINDOW 0 0 56 VBottom 2
WINDOW 3 32 56 VTop 2
SYMATTR InstName R2
SYMATTR Value 10k
SYMBOL cap -176 32 R0
SYMATTR InstName C1
SYMATTR Value 5.6n
SYMBOL cap 16 112 R0
SYMATTR InstName C2
SYMATTR Value 680p
SYMBOL cap 192 -48 R90
WINDOW 0 0 32 VBottom 2
WINDOW 3 32 32 VTop 2
SYMATTR InstName C3
SYMATTR Value 330p
SYMBOL res -32 -16 R90
WINDOW 0 0 56 VBottom 2
WINDOW 3 32 56 VTop 2
SYMATTR InstName R3
SYMATTR Value 820
SYMBOL res -16 96 R90
WINDOW 0 0 56 VBottom 2
WINDOW 3 32 56 VTop 2
SYMATTR InstName R4
SYMATTR Value 820
SYMBOL res -144 256 R180
WINDOW 0 36 76 Left 2
WINDOW 3 36 40 Left 2
SYMATTR InstName R5
SYMATTR Value 5.6k
SYMBOL voltage -672 -32 R0
WINDOW 3 24 44 Left 2
WINDOW 123 24 72 Left 2
WINDOW 39 0 0 Left 0
SYMATTR Value SINE(2.5V 2 1K)
SYMATTR Value2 AC 1
SYMATTR InstName V1
SYMBOL voltage -672 80 R0
WINDOW 3 24 44 Left 2
WINDOW 123 24 72 Left 2
WINDOW 39 0 0 Left 0
SYMATTR Value SINE(-2.5 2 1K)
SYMATTR Value2 AC 1
SYMATTR InstName V2
SYMBOL voltage -784 640 R0
WINDOW 123 0 0 Left 0
WINDOW 39 0 0 Left 0
SYMATTR InstName V3
SYMATTR Value 12
SYMBOL voltage -784 752 R0
WINDOW 123 0 0 Left 0
WINDOW 39 0 0 Left 0
SYMATTR InstName V4
SYMATTR Value 12
SYMBOL res 112 400 R90
WINDOW 0 0 56 VBottom 2
WINDOW 3 32 56 VTop 2
SYMATTR InstName R9
SYMATTR Value 4k7
SYMBOL res 0 400 R90
WINDOW 0 0 56 VBottom 2
WINDOW 3 32 56 VTop 2
SYMATTR InstName R10
SYMATTR Value 1k
SYMBOL OPA1632 80 640 R0
SYMATTR InstName U2
SYMBOL res 0 848 R90
WINDOW 0 0 56 VBottom 2
WINDOW 3 32 56 VTop 2
SYMATTR InstName R8
SYMATTR Value 1k
SYMBOL res 112 848 R90
WINDOW 0 0 56 VBottom 2
WINDOW 3 32 56 VTop 2
SYMATTR InstName R11
SYMATTR Value 4.7k
SYMBOL res 64 -176 R90
WINDOW 0 0 56 VBottom 2
WINDOW 3 32 56 VTop 2
SYMATTR InstName R7
SYMATTR Value 5.6k
SYMBOL res 352 64 R90
WINDOW 0 0 56 VBottom 2
WINDOW 3 32 56 VTop 2
SYMATTR InstName R6
SYMATTR Value 820
SYMBOL res 320 576 R90
WINDOW 0 0 56 VBottom 2
WINDOW 3 32 56 VTop 2
SYMATTR InstName R13
SYMATTR Value 39
SYMBOL res 320 672 R90
WINDOW 0 0 56 VBottom 2
WINDOW 3 32 56 VTop 2
SYMATTR InstName R14
SYMATTR Value 39
SYMBOL cap 320 608 R0
SYMATTR InstName C4
SYMATTR Value 2.2n
SYMBOL cap 128 480 R90
WINDOW 0 0 32 VBottom 2
WINDOW 3 32 32 VTop 2
SYMATTR InstName C5
SYMATTR Value 680p
SYMBOL cap 128 768 R90
WINDOW 0 0 32 VBottom 2
WINDOW 3 32 32 VTop 2
SYMATTR InstName C6
SYMATTR Value 680p
TEXT -720 408 Left 2 !;tran 1
TEXT -384 648 Left 2 ;DAC
TEXT -432 56 Left 2 ;DAC
TEXT -720 440 Left 2 !.ac dec 1 1k 1MEG
TEXT -584 648 Left 2 ;ADC
TEXT -496 640 Left 2 ;FPGA
TEXT -656 648 Left 2 ;AAF
TEXT 856 272 Left 2 ;E12 series capacitors\nE24 series resistors if E12 is not good enough
TEXT -64 344 Left 2 ;100k & 470k
TEXT -48 312 Left 2 ;1R & 4R7
TEXT 736 -248 Left 2 ;For monday during the minor unbalanced LPF with buffer:\n-Only use E12 capacitors\n-Use E12 resistors and if realy needed you can use E24 resistors but I will then ask why\n-Keep gain the same so ±1,74 peak referenced to GND\n-Make the LPF ±1dB for 20 Hz up and till 20 kHz\n-Set the cutoff frequency (-3 dB point) on around 30 kHz to 60 kHz (and if realy needed to be higher explain/show it)\n-Try to get the resistor values between 820 R and 10 kR.\n-Make sure it all looks nice and tidy on monday and is uploaded to Git \n \n-Bottom circuit is fine, but play with it so you can explain how it works\n-Why is the Vocm of the OPA1632 connected to GND? (tell me monday)\n \n-Last but not least place the blocks and lines of the block diagram on the grid ;)
TEXT 816 528 Left 2 ;-3 db=54 kHz with an flatness of ±0.5 dB in the audio band (20 Hz up and till 20 kHz)
