Version 4
SHEET 1 1220 680
WIRE -176 -176 -176 -208
WIRE -176 -64 -176 -96
WIRE 272 -16 16 -16
WIRE 448 -16 272 -16
WIRE 464 -16 448 -16
WIRE 560 -16 544 -16
WIRE 656 -16 560 -16
WIRE 656 0 656 -16
WIRE 272 16 272 -16
WIRE 608 16 576 16
WIRE 352 48 320 48
WIRE 448 48 448 -16
WIRE 448 48 416 48
WIRE 272 96 272 80
WIRE 272 96 240 96
WIRE 560 96 560 -16
WIRE 560 96 528 96
WIRE 720 96 656 96
WIRE 848 96 800 96
WIRE 928 96 848 96
WIRE 1024 96 1024 64
WIRE 1024 96 928 96
WIRE 1056 96 1024 96
WIRE 1200 96 1136 96
WIRE -224 112 -224 96
WIRE -128 112 -224 112
WIRE -64 112 -128 112
WIRE 16 112 16 -16
WIRE 16 112 -64 112
WIRE 64 112 16 112
WIRE 928 112 928 96
WIRE -128 128 -128 112
WIRE 320 128 320 48
WIRE 320 128 240 128
WIRE 352 128 320 128
WIRE 448 128 448 48
WIRE 448 128 432 128
WIRE 656 128 656 96
WIRE 848 128 848 96
WIRE 1200 144 1200 96
WIRE -64 160 -64 112
WIRE -48 160 -64 160
WIRE 64 160 32 160
WIRE 528 160 528 96
WIRE 528 160 240 160
WIRE 576 192 576 16
WIRE 576 192 240 192
WIRE 1024 192 1024 96
WIRE -128 208 -128 192
WIRE -128 208 -224 208
WIRE 64 208 -128 208
WIRE 848 224 848 192
WIRE 848 224 240 224
WIRE 928 224 928 192
WIRE 928 224 848 224
WIRE -224 240 -224 208
WIRE 928 256 928 224
WIRE 656 352 656 192
WIRE 928 352 928 336
WIRE 1024 352 1024 256
FLAG -176 -64 0
FLAG -176 -208 Supply
FLAG -224 96 Supply
FLAG -224 240 0
FLAG 928 352 0
FLAG 1024 352 0
FLAG 656 352 0
FLAG 1200 144 0
FLAG 1024 64 Vout
SYMBOL voltage -176 -192 R0
WINDOW 123 0 0 Left 0
WINDOW 39 0 0 Left 0
SYMATTR InstName V1
SYMATTR Value 18V
SYMBOL LM25085_TRANS 144 160 R0
WINDOW 0 6 -83 Bottom 2
WINDOW 3 10 86 Top 2
SYMATTR InstName U1
SYMBOL res 48 144 R90
WINDOW 0 0 56 VBottom 2
WINDOW 3 32 56 VTop 2
SYMATTR InstName R1
SYMATTR Value 133K
SYMBOL cap -144 128 R0
SYMATTR InstName C1
SYMATTR Value 10µ
SYMBOL cap 256 16 R0
SYMATTR InstName C2
SYMATTR Value 470n
SYMBOL cap 416 32 R90
WINDOW 0 0 32 VBottom 2
WINDOW 3 32 32 VTop 2
SYMATTR InstName C3
SYMATTR Value 1n
SYMBOL res 448 112 R90
WINDOW 0 0 56 VBottom 2
WINDOW 3 32 56 VTop 2
SYMATTR InstName R2
SYMATTR Value 1.82K
SYMBOL res 560 -32 R90
WINDOW 0 0 56 VBottom 2
WINDOW 3 32 56 VTop 2
SYMATTR InstName R3
SYMATTR Value 10m
SYMBOL res 912 96 R0
SYMATTR InstName R4
SYMATTR Value 43K
SYMBOL res 912 240 R0
SYMATTR InstName R5
SYMATTR Value 5K
SYMBOL cap 1008 192 R0
SYMATTR InstName C4
SYMATTR Value 240µ
SYMBOL pmos 608 96 M180
SYMATTR InstName M1
SYMATTR Value FDC5614P
SYMBOL schottky 672 192 R180
WINDOW 0 24 64 Left 2
WINDOW 3 24 0 Left 2
SYMATTR InstName D1
SYMATTR Value 1N5819
SYMBOL res 1152 80 R90
WINDOW 0 0 56 VBottom 2
WINDOW 3 32 56 VTop 2
SYMATTR InstName load
SYMATTR Value 4
SYMBOL ind 704 112 R270
WINDOW 0 32 56 VTop 2
WINDOW 3 5 56 VBottom 2
SYMATTR InstName L1
SYMATTR Value 8.2µ
SYMBOL cap 832 128 R0
SYMATTR InstName C5
SYMATTR Value 5.6n
TEXT -256 424 Left 2 !.OPTIONS nomarch\n.options plotwinsize 0\n.options numdgt 7\n;options maxstep 10n\n.tran 10m startup
TEXT 16 424 Left 2 !.meas tran x pp v(Vout)
