Version 4
SHEET 1 1416 804
WIRE -320 -16 -384 -16
WIRE -256 -16 -320 -16
WIRE -224 -16 -256 -16
WIRE -192 -16 -224 -16
WIRE -128 -16 -192 -16
WIRE -64 -16 -128 -16
WIRE 16 -16 -64 -16
WIRE 240 -16 16 -16
WIRE 432 -16 240 -16
WIRE 448 -16 432 -16
WIRE 544 -16 528 -16
WIRE 640 -16 544 -16
WIRE 240 0 240 -16
WIRE 640 0 640 -16
WIRE 592 16 576 16
WIRE 336 32 320 32
WIRE 432 32 432 -16
WIRE 432 32 400 32
WIRE 240 80 240 64
WIRE 240 80 224 80
WIRE 16 96 16 -16
WIRE 48 96 16 96
WIRE 688 96 640 96
WIRE 784 96 768 96
WIRE 864 96 784 96
WIRE 944 96 864 96
WIRE 1008 96 944 96
WIRE 1072 96 1008 96
WIRE 1136 96 1072 96
WIRE 1200 96 1136 96
WIRE 1248 96 1200 96
WIRE 1280 96 1248 96
WIRE 320 112 320 32
WIRE 320 112 224 112
WIRE 336 112 320 112
WIRE 432 112 432 32
WIRE 432 112 416 112
WIRE 864 112 864 96
WIRE 640 128 640 96
WIRE 784 128 784 96
WIRE -64 144 -64 -16
WIRE -48 144 -64 144
WIRE 48 144 32 144
WIRE 544 144 544 -16
WIRE 544 144 224 144
WIRE -384 176 -384 -16
WIRE 576 176 576 16
WIRE 576 176 224 176
WIRE -320 192 -320 -16
WIRE -256 192 -256 -16
WIRE -192 192 -192 -16
WIRE -128 192 -128 -16
WIRE 48 192 16 192
WIRE 784 208 784 192
WIRE 784 208 224 208
WIRE 864 224 864 192
WIRE 1280 224 1280 96
WIRE 944 240 944 96
WIRE 1008 240 1008 96
WIRE 1072 240 1072 96
WIRE 1136 240 1136 96
WIRE 1200 240 1200 96
WIRE 784 336 784 208
WIRE 864 336 864 304
WIRE 864 336 784 336
WIRE 864 352 864 336
WIRE -384 496 -384 256
WIRE -320 496 -320 256
WIRE -320 496 -384 496
WIRE -256 496 -256 256
WIRE -256 496 -320 496
WIRE -192 496 -192 256
WIRE -192 496 -256 496
WIRE -128 496 -128 256
WIRE -128 496 -192 496
WIRE 16 496 16 192
WIRE 16 496 -128 496
WIRE 640 496 640 192
WIRE 640 496 16 496
WIRE 864 496 864 432
WIRE 864 496 640 496
WIRE 944 496 944 304
WIRE 944 496 864 496
WIRE 1008 496 1008 304
WIRE 1008 496 944 496
WIRE 1072 496 1072 304
WIRE 1072 496 1008 496
WIRE 1136 496 1136 304
WIRE 1136 496 1072 496
WIRE 1200 496 1200 304
WIRE 1200 496 1136 496
WIRE 1280 496 1280 304
WIRE 1280 496 1200 496
WIRE -384 512 -384 496
FLAG -224 -16 Supply
FLAG 1248 96 Vout
FLAG -384 512 0
SYMBOL voltage -384 160 M0
WINDOW 123 0 0 Left 0
WINDOW 39 24 44 Left 2
SYMATTR SpiceLine Rser=100m
SYMATTR InstName V1
SYMATTR Value 24
SYMBOL LM25085_TRANS 128 144 R0
WINDOW 0 6 -83 Bottom 2
WINDOW 3 10 86 Top 2
SYMATTR InstName U1
SYMBOL res 48 128 R90
WINDOW 0 0 56 VBottom 2
WINDOW 3 32 56 VTop 2
SYMATTR InstName R1
SYMATTR Value 47k
SYMBOL cap -144 192 R0
SYMATTR InstName C1
SYMATTR Value 10µ
SYMATTR SpiceLine Rser=20m
SYMBOL cap 224 0 R0
SYMATTR InstName C2
SYMATTR Value 470n
SYMBOL cap 400 16 R90
WINDOW 0 0 32 VBottom 2
WINDOW 3 32 32 VTop 2
SYMATTR InstName C3
SYMATTR Value 1n
SYMBOL res 432 96 R90
WINDOW 0 0 56 VBottom 2
WINDOW 3 32 56 VTop 2
SYMATTR InstName R2
SYMATTR Value 1.05k
SYMBOL res 544 -32 R90
WINDOW 0 0 56 VBottom 2
WINDOW 3 32 56 VTop 2
SYMATTR InstName R3
SYMATTR Value 10m
SYMBOL res 848 96 R0
SYMATTR InstName R4
SYMATTR Value 22k
SYMBOL res 848 208 R0
SYMATTR InstName R5
SYMATTR Value 3.3k
SYMBOL pmos 592 96 M180
SYMATTR InstName M1
SYMATTR Value FDC5614P
SYMBOL schottky 624 192 M180
WINDOW 0 24 64 Left 2
WINDOW 3 24 0 Left 2
SYMATTR InstName D1
SYMATTR Value 1N5819
SYMBOL res 1264 208 R0
SYMATTR InstName load
SYMATTR Value 16
SYMBOL ind 672 112 R270
WINDOW 0 32 56 VTop 2
WINDOW 3 5 56 VBottom 2
SYMATTR InstName L1
SYMATTR Value 15µ
SYMATTR SpiceLine Rser=20m
SYMBOL cap 768 128 R0
SYMATTR InstName C5
SYMATTR Value 2.2n
SYMBOL cap 928 240 R0
SYMATTR InstName C7
SYMATTR Value 10µ
SYMATTR SpiceLine Rser=20m
SYMBOL cap -208 192 R0
SYMATTR InstName C8
SYMATTR Value 10µ
SYMATTR SpiceLine Rser=20m
SYMBOL cap 992 240 R0
SYMATTR InstName C9
SYMATTR Value 10µ
SYMATTR SpiceLine Rser=20m
SYMBOL cap 1056 240 R0
SYMATTR InstName C4
SYMATTR Value 10µ
SYMATTR SpiceLine Rser=20m
SYMBOL cap 1120 240 R0
SYMATTR InstName C6
SYMATTR Value 10µ
SYMATTR SpiceLine Rser=20m
SYMBOL cap 1184 240 R0
SYMATTR InstName C10
SYMATTR Value 10µ
SYMATTR SpiceLine Rser=20m
SYMBOL res 848 336 R0
SYMATTR InstName R6
SYMATTR Value 4.7k
TEXT -208 648 Left 2 !.OPTIONS nomarch\n.options plotwinsize 0\n.options numdgt 7\n;options maxstep 10n\n.tran 10m startup\n.meas tran x pp v(Vout)
TEXT 560 640 Left 2 ;E24 resistors were used to get the desired voltage
TEXT 256 688 Left 2 ;TODO:\n-Calculate Rt (with our MOSFET)\n-Check inductance\n-Add extra ripple feedback network to furthur supress output ripple
