Version 4
SHEET 1 4088 1032
WIRE -32 16 -80 16
WIRE 16 16 -32 16
WIRE 128 16 16 16
WIRE 224 16 208 16
WIRE 320 16 224 16
WIRE 336 16 320 16
WIRE 448 16 400 16
WIRE 496 16 448 16
WIRE 592 16 576 16
WIRE 672 16 592 16
WIRE 768 16 672 16
WIRE -80 32 -80 16
WIRE 448 32 448 16
WIRE 592 32 592 16
WIRE 224 64 224 16
WIRE 320 64 320 16
WIRE 768 112 768 16
WIRE -80 128 -80 112
WIRE 16 128 16 16
WIRE 128 128 16 128
WIRE 592 128 592 112
WIRE 592 128 416 128
WIRE 672 128 672 16
WIRE -32 224 -32 16
WIRE 16 224 16 128
WIRE 128 224 16 224
WIRE 16 320 16 224
WIRE 32 320 16 320
WIRE 128 320 112 320
WIRE 528 320 416 320
WIRE 608 320 528 320
WIRE 608 336 608 320
WIRE 128 416 96 416
WIRE 448 416 416 416
WIRE 96 432 96 416
WIRE 448 448 448 416
WIRE 528 448 528 320
WIRE 608 448 608 416
WIRE -32 528 -32 288
WIRE 96 528 96 512
WIRE 96 528 -32 528
WIRE 272 528 272 480
WIRE 272 528 96 528
WIRE 448 528 448 512
WIRE 448 528 272 528
WIRE 528 528 528 512
WIRE 528 528 448 528
WIRE 608 528 608 512
WIRE 608 528 528 528
WIRE 672 528 672 192
WIRE 672 528 608 528
WIRE 768 528 768 192
WIRE 768 528 672 528
WIRE 768 544 768 528
FLAG -80 128 0
FLAG -80 16 +VIN
FLAG 768 16 -15V
FLAG 448 96 0
FLAG 768 544 0
SYMBOL voltage -80 16 M0
WINDOW 123 0 0 Left 0
WINDOW 39 24 124 Left 2
SYMATTR SpiceLine Rser=10m
SYMATTR InstName V1
SYMATTR Value 12V
SYMBOL res 752 96 R0
SYMATTR InstName Rload
SYMATTR Value 15
SYMBOL PowerProducts\\LT3579 272 272 R0
SYMATTR InstName U1
SYMBOL res 128 304 R90
WINDOW 0 0 56 VBottom 2
WINDOW 3 32 56 VTop 2
SYMATTR InstName R2
SYMATTR Value 100k
SYMBOL ind2 224 32 M270
WINDOW 0 32 56 VTop 2
WINDOW 3 5 56 VBottom 2
SYMATTR InstName L1
SYMATTR Value 3µ3
SYMATTR Type ind
SYMBOL cap 400 0 R90
WINDOW 0 0 32 VBottom 2
WINDOW 3 32 32 VTop 2
SYMATTR InstName C1
SYMATTR Value 4µ7
SYMBOL diode 432 32 R0
SYMATTR InstName D2
SYMBOL cap 432 448 R0
SYMATTR InstName C2
SYMATTR Value 220n
SYMBOL cap 512 448 R0
SYMATTR InstName C3
SYMATTR Value 27p
SYMBOL cap 592 448 R0
SYMATTR InstName C4
SYMATTR Value 1n
SYMBOL res 592 320 R0
SYMATTR InstName R3
SYMATTR Value 20k
SYMBOL res 112 416 M0
SYMATTR InstName R4
SYMATTR Value 72k
SYMBOL cap 656 128 R0
SYMATTR InstName C5
SYMATTR Value 100µ
SYMBOL ind2 480 32 R270
WINDOW 0 32 56 VTop 2
WINDOW 3 5 56 VBottom 2
SYMATTR InstName L2
SYMATTR Value 3µ3
SYMATTR Type ind
SYMBOL cap -16 224 M0
SYMATTR InstName C6
SYMATTR Value 22µ
SYMBOL res 576 16 R0
SYMATTR InstName R1
SYMATTR Value 144k
TEXT -360 304 Left 2 !.tran 0 20m 0\n.options nomarch
TEXT 128 -48 Left 2 !K1 L1 L2 1
