Version 4
SHEET 1 4088 1032
WIRE -320 -32 -400 -32
WIRE -192 -32 -320 -32
WIRE 256 -32 -192 -32
WIRE 560 -32 256 -32
WIRE -192 -16 -192 -32
WIRE 560 -16 560 -32
WIRE 256 16 256 -32
WIRE -400 32 -400 -32
WIRE -320 48 -320 -32
WIRE -192 80 -192 64
WIRE 96 80 -192 80
WIRE 448 80 416 80
WIRE 560 80 560 64
WIRE 608 80 560 80
WIRE 688 80 672 80
WIRE 720 80 688 80
WIRE 848 80 800 80
WIRE 944 80 848 80
WIRE 1056 80 1056 64
WIRE 1056 80 944 80
WIRE -192 96 -192 80
WIRE 448 96 448 80
WIRE 560 96 560 80
WIRE 848 96 848 80
WIRE 688 128 688 80
WIRE 96 176 -112 176
WIRE 512 176 416 176
WIRE 944 224 944 80
WIRE 1056 224 1056 80
WIRE 96 272 -16 272
WIRE 560 272 560 192
WIRE 560 272 416 272
WIRE 96 368 64 368
WIRE 848 368 848 176
WIRE 848 368 416 368
WIRE 64 384 64 368
WIRE -16 464 -16 272
WIRE 848 464 848 368
WIRE -112 480 -112 176
WIRE 64 480 64 464
WIRE -400 560 -400 112
WIRE -320 560 -320 112
WIRE -320 560 -400 560
WIRE -192 560 -192 176
WIRE -192 560 -320 560
WIRE -112 560 -112 544
WIRE -112 560 -192 560
WIRE -16 560 -16 544
WIRE -16 560 -112 560
WIRE 64 560 64 544
WIRE 64 560 -16 560
WIRE 256 560 256 432
WIRE 256 560 64 560
WIRE 448 560 448 160
WIRE 448 560 256 560
WIRE 560 560 560 352
WIRE 560 560 448 560
WIRE 688 560 688 192
WIRE 688 560 560 560
WIRE 848 560 848 544
WIRE 848 560 688 560
WIRE 944 560 944 288
WIRE 944 560 848 560
WIRE 1056 560 1056 304
WIRE 1056 560 944 560
WIRE -400 576 -400 560
FLAG -400 -32 +VIN
FLAG 1056 64 -15V
FLAG -400 576 0
SYMBOL voltage -400 16 M0
WINDOW 123 0 0 Left 0
WINDOW 39 24 124 Left 2
SYMATTR SpiceLine Rser=10m
SYMATTR InstName V1
SYMATTR Value 18V
SYMBOL res 1040 208 R0
SYMATTR InstName Rload
SYMATTR Value 15
SYMBOL ind2 544 80 M180
WINDOW 0 36 80 Left 2
WINDOW 3 36 40 Left 2
SYMATTR InstName L1
SYMATTR Value 30µ
SYMATTR Type ind
SYMBOL schottky 672 128 R0
SYMATTR InstName D2
SYMATTR Value RB050L-60
SYMATTR Description Diode
SYMATTR Type diode
SYMBOL ind2 704 96 R270
WINDOW 0 32 56 VTop 2
WINDOW 3 5 56 VBottom 2
SYMATTR InstName L2
SYMATTR Value 30µ
SYMATTR Type ind
SYMBOL cap -336 48 R0
SYMATTR InstName C1
SYMATTR Value 18µ
SYMBOL cap 672 64 R90
WINDOW 0 0 32 VBottom 2
WINDOW 3 32 32 VTop 2
SYMATTR InstName C3
SYMATTR Value 4µ4
SYMBOL PowerProducts\\LT3758 256 224 R0
SYMATTR InstName U2
SYMBOL cap 80 480 M0
SYMATTR InstName C2
SYMATTR Value 6n8
SYMBOL res 80 368 M0
SYMATTR InstName R1
SYMATTR Value 10k
SYMBOL cap -96 480 M0
SYMATTR InstName C4
SYMATTR Value 470n
SYMBOL res 0 448 M0
SYMATTR InstName R2
SYMATTR Value 41k2
SYMBOL res -176 80 M0
SYMATTR InstName R3
SYMATTR Value 32k4
SYMBOL res -176 -32 M0
SYMATTR InstName R4
SYMATTR Value 200k
SYMBOL nmos 512 96 R0
SYMATTR InstName M1
SYMBOL res 544 256 R0
SYMATTR InstName R5
SYMATTR Value 15m
SYMBOL cap 432 96 R0
SYMATTR InstName C5
SYMATTR Value 4µ7
SYMBOL res 832 80 R0
SYMATTR InstName R6
SYMATTR Value 105k
SYMBOL res 832 448 R0
SYMATTR InstName R7
SYMATTR Value 7k5
SYMBOL cap 928 224 R0
SYMATTR InstName C6
SYMATTR Value 180µ
TEXT -408 -120 Left 2 !.tran 0 20m 0\n.options nomarch
TEXT 576 -40 Left 2 !K1 L1 L2 1
TEXT -512 640 Left 2 ;LT3758\nhttps://nl.mouser.com/ProductDetail/Analog-Devices/LT3758EMSEPBF?qs=hVkxg5c3xu%2FO4G0yyzfa0Q%3D%3D\n \nCoupled inductor:\nhttps://nl.mouser.com/c/passive-components/inductors-chokes-coils/coupled-inductors/?maximum%20dc%20current=2.5%20A~~80%20A&instock=y&rp=passive-components%2Finductors-chokes-coils%2Fcoupled-inductors%7C~Maximum%20DC%20Current
TEXT 240 -120 Left 2 ;Werkt ook nog niet...->check Google
TEXT 48 -192 Left 2 ;-Simulation keeps in pseudo mode when simulating SEPIC mode
