Version 4
SHEET 1 4088 1032
WIRE 784 -144 688 -144
WIRE 800 -144 784 -144
WIRE 784 -128 784 -144
WIRE 688 -112 688 -144
WIRE 320 -32 304 -32
WIRE 416 -32 400 -32
WIRE 432 -32 416 -32
WIRE 512 -32 496 -32
WIRE 560 -32 512 -32
WIRE 656 -32 624 -32
WIRE 688 -32 688 -48
WIRE 688 -32 656 -32
WIRE 784 -32 784 -48
WIRE 784 -32 688 -32
WIRE 800 -32 784 -32
WIRE 112 -16 16 -16
WIRE 192 -16 112 -16
WIRE 512 -16 512 -32
WIRE 656 -16 656 -32
WIRE 16 0 16 -16
WIRE 192 16 192 -16
WIRE 304 16 304 -32
WIRE 416 16 416 -32
WIRE 512 64 512 48
WIRE 560 64 512 64
WIRE 112 80 112 -16
WIRE 144 80 112 80
WIRE 512 80 512 64
WIRE 512 80 464 80
WIRE 656 80 656 64
WIRE 656 80 608 80
WIRE 16 96 16 80
WIRE 656 96 656 80
WIRE 112 144 112 80
WIRE 144 144 112 144
WIRE 512 144 464 144
WIRE 656 176 656 160
WIRE 144 208 48 208
WIRE 480 208 464 208
WIRE 480 224 480 208
WIRE 512 224 480 224
WIRE 608 224 608 80
WIRE 608 224 512 224
WIRE 144 272 128 272
WIRE 496 272 464 272
WIRE 496 288 496 272
WIRE 128 368 128 272
WIRE 48 384 48 208
WIRE 496 384 496 368
WIRE 48 464 48 448
WIRE 128 464 128 448
WIRE 128 464 48 464
WIRE 304 464 304 320
WIRE 304 464 128 464
WIRE 496 464 496 448
WIRE 496 464 304 464
WIRE 304 480 304 464
FLAG 16 96 0
FLAG 16 -16 +VIN
FLAG 800 -32 -15V
FLAG 304 480 0
FLAG 560 64 0
FLAG 656 176 0
FLAG 800 -144 0
SYMBOL voltage 16 -16 M0
WINDOW 123 0 0 Left 0
WINDOW 39 0 0 Left 0
SYMATTR InstName V1
SYMATTR Value 18V
SYMBOL diode 496 -16 R0
SYMATTR InstName D1
SYMBOL res 768 -144 R0
SYMATTR InstName Rload
SYMATTR Value 15
SYMBOL PowerProducts\\LT3479 304 160 R0
SYMATTR InstName U1
SYMBOL res 480 272 R0
SYMATTR InstName R1
SYMATTR Value 10k
SYMBOL cap 480 384 R0
SYMATTR InstName C1
SYMATTR Value 2n2
SYMBOL res 112 352 R0
SYMATTR InstName R2
SYMATTR Value 17k8
SYMBOL cap 32 384 R0
SYMATTR InstName C2
SYMATTR Value 10n
SYMBOL cap 496 80 R0
SYMATTR InstName C3
SYMATTR Value 100p
SYMBOL res 496 128 R0
SYMATTR InstName R3
SYMATTR Value 100k
SYMBOL ind 304 -16 R270
WINDOW 0 32 56 VTop 2
WINDOW 3 5 56 VBottom 2
SYMATTR InstName L1
SYMATTR Value 4µ7
SYMBOL cap 496 -48 R90
WINDOW 0 0 32 VBottom 2
WINDOW 3 32 32 VTop 2
SYMATTR InstName C4
SYMATTR Value 2µ2
SYMBOL diode 624 -48 R90
WINDOW 0 0 32 VBottom 2
WINDOW 3 32 32 VTop 2
SYMATTR InstName D2
SYMBOL res 640 -32 R0
SYMATTR InstName R4
SYMATTR Value 470k
SYMBOL diode 672 160 R180
WINDOW 0 24 64 Left 2
WINDOW 3 24 0 Left 2
SYMATTR InstName D3
SYMBOL cap 672 -112 R0
SYMATTR InstName C5
SYMATTR Value 10µ
TEXT -32 -112 Left 2 !.tran 0 10m 0\n.options nomarch
TEXT 96 480 Left 2 ;fsw=1MHz
TEXT 488 112 Right 2 ;1.235V
TEXT 552 376 Left 2 ;Compensating
TEXT 24 384 Right 2 ;Soft start capacitor
TEXT 96 -248 Left 2 ;-Krijg hem niet geregeld naar -15V\n+2.5V<Vin<24V
