Version 4
SHEET 1 4088 1032
WIRE -64 32 -144 32
WIRE 16 32 -64 32
WIRE 128 32 16 32
WIRE 160 32 128 32
WIRE 288 32 240 32
WIRE 304 32 288 32
WIRE 384 32 368 32
WIRE 432 32 384 32
WIRE 528 32 512 32
WIRE 624 32 528 32
WIRE 752 32 624 32
WIRE 384 48 384 32
WIRE 528 48 528 32
WIRE 624 48 624 32
WIRE 128 112 128 32
WIRE 288 112 288 32
WIRE -144 128 -144 32
WIRE 384 128 384 112
WIRE 528 128 528 112
WIRE 528 128 384 128
WIRE -64 144 -64 32
WIRE 528 144 528 128
WIRE 16 176 16 32
WIRE 48 176 16 176
WIRE 528 176 368 176
WIRE 528 192 528 176
WIRE 752 240 752 32
WIRE -144 272 -144 208
WIRE -64 272 -64 208
WIRE -64 272 -144 272
WIRE 48 272 -64 272
WIRE 624 272 624 128
WIRE 624 272 368 272
WIRE 624 320 624 272
WIRE 48 368 -64 368
WIRE 432 368 368 368
WIRE 432 384 432 368
WIRE -64 464 -64 368
WIRE 48 464 16 464
WIRE 400 464 368 464
WIRE 16 480 16 464
WIRE 432 480 432 464
WIRE -144 560 -144 272
WIRE -64 560 -64 544
WIRE -64 560 -144 560
WIRE 16 560 16 544
WIRE 16 560 -64 560
WIRE 208 560 208 528
WIRE 208 560 16 560
WIRE 400 560 400 464
WIRE 400 560 208 560
WIRE 432 560 432 544
WIRE 432 560 400 560
WIRE 528 560 528 256
WIRE 528 560 432 560
WIRE 624 560 624 400
WIRE 624 560 528 560
WIRE 752 560 752 320
WIRE 752 560 624 560
WIRE -144 576 -144 560
FLAG -144 32 +VIN
FLAG 752 32 -15V
FLAG -144 576 0
FLAG 528 144 0
SYMBOL voltage -144 112 M0
WINDOW 123 0 0 Left 0
WINDOW 39 24 124 Left 2
SYMATTR SpiceLine Rser=10m
SYMATTR InstName V1
SYMATTR Value 18V
SYMBOL res 736 224 R0
SYMATTR InstName Rload
SYMATTR Value 15
SYMBOL ind2 256 48 M270
WINDOW 0 32 56 VTop 2
WINDOW 3 5 56 VBottom 2
SYMATTR InstName L1
SYMATTR Value 3µ3
SYMATTR Type ind
SYMBOL schottky 368 48 R0
SYMATTR InstName D2
SYMATTR Value RB050L-60
SYMATTR Description Diode
SYMATTR Type diode
SYMBOL cap 512 48 R0
SYMATTR InstName C5
SYMATTR Value 22µ
SYMBOL ind2 416 48 R270
WINDOW 0 32 56 VTop 2
WINDOW 3 5 56 VBottom 2
SYMATTR InstName L2
SYMATTR Value 3µ3
SYMATTR Type ind
SYMBOL PowerProducts\\LT8364 208 320 R0
SYMATTR InstName U1
SYMBOL cap -80 144 R0
SYMATTR InstName C1
SYMATTR Value 4µ7
SYMBOL cap 32 480 M0
SYMATTR InstName C2
SYMATTR Value 10n
SYMBOL res -48 448 M0
SYMATTR InstName R1
SYMATTR Value 20k
SYMBOL cap 368 16 R90
WINDOW 0 0 32 VBottom 2
WINDOW 3 32 32 VTop 2
SYMATTR InstName C3
SYMATTR Value 1µ
SYMBOL res 608 32 R0
SYMATTR InstName R2
SYMATTR Value 1Meg
SYMBOL res 608 304 R0
SYMATTR InstName R3
SYMATTR Value 34k8
SYMBOL cap 512 192 R0
SYMATTR InstName C4
SYMATTR Value 1µ
SYMBOL cap 416 480 R0
SYMATTR InstName C6
SYMATTR Value 2n2
SYMBOL res 416 368 R0
SYMATTR InstName R4
SYMATTR Value 57k6
TEXT -160 -48 Left 2 !.tran 0 20m 0\n.options nomarch
TEXT 136 -32 Left 2 ;K1 L1 L2 1
TEXT -312 624 Left 2 ;LT8364\nhttps://nl.mouser.com/ProductDetail/Analog-Devices/LT8364IMSEPBF?qs=W0yvOO0ixfG77gQZ3caAAA%3D%3D\n \nCoupled inductor:\nSeries vs parallel inductance?\nhttps://nl.mouser.com/c/passive-components/inductors-chokes-coils/coupled-inductors/?maximum%20dc%20current=2.5%20A~~80%20A&instock=y&rp=passive-components%2Finductors-chokes-coils%2Fcoupled-inductors%7C~Maximum%20DC%20Current
TEXT 424 -112 Left 2 ;-Model not working in SEPIC mode.
