Version 4
SHEET 1 4088 1032
WIRE 144 -80 -208 -80
WIRE 480 -80 144 -80
WIRE 560 -80 480 -80
WIRE -208 -64 -208 -80
WIRE 560 -64 560 -80
WIRE 480 -48 480 -80
WIRE 416 -32 -32 -32
WIRE 144 -16 144 -80
WIRE -208 32 -208 16
WIRE 416 32 416 -32
WIRE 480 32 480 16
WIRE 480 32 416 32
WIRE 560 32 560 16
WIRE 560 32 480 32
WIRE -32 48 -32 -32
WIRE -16 48 -32 48
WIRE 352 48 304 48
WIRE 448 48 352 48
WIRE 560 48 560 32
WIRE 448 80 448 48
WIRE 784 80 448 80
WIRE 352 96 352 48
WIRE 784 96 784 80
WIRE -192 128 -208 128
WIRE -96 128 -112 128
WIRE -16 128 -32 128
WIRE 512 128 304 128
WIRE -32 208 -112 208
WIRE -16 208 -32 208
WIRE 352 208 352 160
WIRE 352 208 304 208
WIRE 560 208 560 144
WIRE 560 208 352 208
WIRE 576 208 560 208
WIRE 688 208 656 208
WIRE 784 208 784 160
WIRE 784 208 688 208
WIRE 880 208 784 208
WIRE 896 208 880 208
WIRE 560 224 560 208
WIRE 688 224 688 208
WIRE -112 240 -112 208
WIRE 880 272 880 208
WIRE 784 288 784 208
WIRE -32 320 -32 208
WIRE 688 320 688 304
WIRE 688 320 -32 320
WIRE 688 336 688 320
WIRE -208 432 -208 128
WIRE -112 432 -112 304
WIRE -112 432 -208 432
WIRE 144 432 144 272
WIRE 144 432 -112 432
WIRE 560 432 560 288
WIRE 560 432 144 432
WIRE 688 432 688 416
WIRE 688 432 560 432
WIRE 784 432 784 352
WIRE 784 432 688 432
WIRE 880 432 880 352
WIRE 880 432 784 432
WIRE 896 432 880 432
FLAG -208 32 0
FLAG -208 -80 +VIN
FLAG 896 432 -15V
FLAG 896 208 0
SYMBOL PowerProducts\\LTC1624 144 128 R0
SYMATTR InstName U1
SYMBOL cap 336 96 R0
SYMATTR InstName C1
SYMATTR Value 100n
SYMBOL voltage -208 -80 R0
WINDOW 123 0 0 Left 0
WINDOW 39 0 0 Left 0
SYMATTR InstName V1
SYMATTR Value 18V
SYMBOL diode 576 288 R180
WINDOW 0 24 64 Left 2
WINDOW 3 24 0 Left 2
SYMATTR InstName D1
SYMBOL cap -128 240 R0
SYMATTR InstName C2
SYMATTR Value 100p
SYMBOL ind 560 224 R270
WINDOW 0 32 56 VTop 2
WINDOW 3 5 56 VBottom 2
SYMATTR InstName L1
SYMATTR Value 33µ
SYMBOL cap 768 288 R0
SYMATTR InstName C3
SYMATTR Value 220µ
SYMBOL res 672 208 R0
SYMATTR InstName R1
SYMATTR Value 78.7k
SYMBOL res 672 320 R0
SYMATTR InstName R2
SYMATTR Value 24.9k
SYMBOL nmos 512 48 R0
SYMATTR InstName M1
SYMBOL res 544 -80 R0
SYMATTR InstName Rsense
SYMATTR Value 25m
SYMBOL cap 464 -48 R0
SYMATTR InstName C4
SYMATTR Value 1n
SYMBOL cap -32 112 R90
WINDOW 0 0 32 VBottom 2
WINDOW 3 32 32 VTop 2
SYMATTR InstName C5
SYMATTR Value 1n
SYMBOL res -96 112 R90
WINDOW 0 0 56 VBottom 2
WINDOW 3 32 56 VTop 2
SYMATTR InstName R3
SYMATTR Value 3k3
SYMBOL diode 800 160 R180
WINDOW 0 24 64 Left 2
WINDOW 3 24 0 Left 2
SYMATTR InstName D2
SYMBOL res 864 256 R0
SYMATTR InstName Rload
SYMATTR Value 15
TEXT -480 408 Left 2 !.tran 0 50m 0\n.options nomarch
TEXT 80 -192 Left 2 ;-Krijg hem nog niet geregeld naar -15V (see P23 of datasheet LTC1624)\n+3.5V<Vin<36V
